
---------- Begin Simulation Statistics ----------
simSeconds                                   0.125275                       # Number of seconds simulated (Second)
simTicks                                 125274846787                       # Number of ticks simulated (Tick)
finalTick                                125636428154                       # Number of ticks from beginning of simulation (restored from checkpoints and never reset) (Tick)
simFreq                                  1000000000000                       # The number of ticks per simulated second ((Tick/Second))
hostSeconds                                    324.66                       # Real time elapsed on the host (Second)
hostTickRate                                385861795                       # The number of ticks simulated per host second (ticks/s) ((Tick/Second))
hostMemory                                     812112                       # Number of bytes of host memory used (Byte)
simInsts                                     70418196                       # Number of instructions simulated (Count)
simOps                                      126705262                       # Number of ops (including micro ops) simulated (Count)
hostInstRate                                   216896                       # Simulator instruction rate (inst/s) ((Count/Second))
hostOpRate                                     390267                       # Simulator op (including micro ops) rate (op/s) ((Count/Second))
system.clk_domain.clock                          1000                       # Clock period in ticks (Tick)
system.cpu.numCycles                        187818361                       # Number of cpu cycles simulated (Cycle)
system.cpu.numWorkItemsStarted                      0                       # Number of work items this cpu started (Count)
system.cpu.numWorkItemsCompleted                    0                       # Number of work items this cpu completed (Count)
system.cpu.numInsts                          70311691                       # Number of instructions committed (Count)
system.cpu.numOps                           126510314                       # Number of ops (including micro ops) committed (Count)
system.cpu.numDiscardedOps                   22215438                       # Number of ops (including micro ops) which were discarded before commit (Count)
system.cpu.numFetchSuspends                         0                       # Number of times Execute suspended instruction fetching (Count)
system.cpu.cpi                               2.671225                       # CPI: cycles per instruction ((Cycle/Count))
system.cpu.ipc                               0.374360                       # IPC: instructions per cycle ((Count/Cycle))
system.cpu.committedInstType_0::No_OpClass          917      0.00%      0.00% # Class of committed instruction (Count)
system.cpu.committedInstType_0::IntAlu       84477597     66.78%     66.78% # Class of committed instruction (Count)
system.cpu.committedInstType_0::IntMult           400      0.00%     66.78% # Class of committed instruction (Count)
system.cpu.committedInstType_0::IntDiv           1471      0.00%     66.78% # Class of committed instruction (Count)
system.cpu.committedInstType_0::FloatAdd          416      0.00%     66.78% # Class of committed instruction (Count)
system.cpu.committedInstType_0::FloatCmp            0      0.00%     66.78% # Class of committed instruction (Count)
system.cpu.committedInstType_0::FloatCvt           32      0.00%     66.78% # Class of committed instruction (Count)
system.cpu.committedInstType_0::FloatMult            0      0.00%     66.78% # Class of committed instruction (Count)
system.cpu.committedInstType_0::FloatMultAcc            0      0.00%     66.78% # Class of committed instruction (Count)
system.cpu.committedInstType_0::FloatDiv            0      0.00%     66.78% # Class of committed instruction (Count)
system.cpu.committedInstType_0::FloatMisc            0      0.00%     66.78% # Class of committed instruction (Count)
system.cpu.committedInstType_0::FloatSqrt            0      0.00%     66.78% # Class of committed instruction (Count)
system.cpu.committedInstType_0::SimdAdd             0      0.00%     66.78% # Class of committed instruction (Count)
system.cpu.committedInstType_0::SimdAddAcc            0      0.00%     66.78% # Class of committed instruction (Count)
system.cpu.committedInstType_0::SimdAlu          1800      0.00%     66.78% # Class of committed instruction (Count)
system.cpu.committedInstType_0::SimdCmp             0      0.00%     66.78% # Class of committed instruction (Count)
system.cpu.committedInstType_0::SimdCvt          2800      0.00%     66.78% # Class of committed instruction (Count)
system.cpu.committedInstType_0::SimdMisc         5600      0.00%     66.79% # Class of committed instruction (Count)
system.cpu.committedInstType_0::SimdMult            0      0.00%     66.79% # Class of committed instruction (Count)
system.cpu.committedInstType_0::SimdMultAcc            0      0.00%     66.79% # Class of committed instruction (Count)
system.cpu.committedInstType_0::SimdShift            0      0.00%     66.79% # Class of committed instruction (Count)
system.cpu.committedInstType_0::SimdShiftAcc            0      0.00%     66.79% # Class of committed instruction (Count)
system.cpu.committedInstType_0::SimdDiv             0      0.00%     66.79% # Class of committed instruction (Count)
system.cpu.committedInstType_0::SimdSqrt            0      0.00%     66.79% # Class of committed instruction (Count)
system.cpu.committedInstType_0::SimdFloatAdd            0      0.00%     66.79% # Class of committed instruction (Count)
system.cpu.committedInstType_0::SimdFloatAlu            0      0.00%     66.79% # Class of committed instruction (Count)
system.cpu.committedInstType_0::SimdFloatCmp            0      0.00%     66.79% # Class of committed instruction (Count)
system.cpu.committedInstType_0::SimdFloatCvt            0      0.00%     66.79% # Class of committed instruction (Count)
system.cpu.committedInstType_0::SimdFloatDiv            0      0.00%     66.79% # Class of committed instruction (Count)
system.cpu.committedInstType_0::SimdFloatMisc            0      0.00%     66.79% # Class of committed instruction (Count)
system.cpu.committedInstType_0::SimdFloatMult            0      0.00%     66.79% # Class of committed instruction (Count)
system.cpu.committedInstType_0::SimdFloatMultAcc            0      0.00%     66.79% # Class of committed instruction (Count)
system.cpu.committedInstType_0::SimdFloatSqrt            0      0.00%     66.79% # Class of committed instruction (Count)
system.cpu.committedInstType_0::SimdReduceAdd            0      0.00%     66.79% # Class of committed instruction (Count)
system.cpu.committedInstType_0::SimdReduceAlu            0      0.00%     66.79% # Class of committed instruction (Count)
system.cpu.committedInstType_0::SimdReduceCmp            0      0.00%     66.79% # Class of committed instruction (Count)
system.cpu.committedInstType_0::SimdFloatReduceAdd            0      0.00%     66.79% # Class of committed instruction (Count)
system.cpu.committedInstType_0::SimdFloatReduceCmp            0      0.00%     66.79% # Class of committed instruction (Count)
system.cpu.committedInstType_0::SimdAes             0      0.00%     66.79% # Class of committed instruction (Count)
system.cpu.committedInstType_0::SimdAesMix            0      0.00%     66.79% # Class of committed instruction (Count)
system.cpu.committedInstType_0::SimdSha1Hash            0      0.00%     66.79% # Class of committed instruction (Count)
system.cpu.committedInstType_0::SimdSha1Hash2            0      0.00%     66.79% # Class of committed instruction (Count)
system.cpu.committedInstType_0::SimdSha256Hash            0      0.00%     66.79% # Class of committed instruction (Count)
system.cpu.committedInstType_0::SimdSha256Hash2            0      0.00%     66.79% # Class of committed instruction (Count)
system.cpu.committedInstType_0::SimdShaSigma2            0      0.00%     66.79% # Class of committed instruction (Count)
system.cpu.committedInstType_0::SimdShaSigma3            0      0.00%     66.79% # Class of committed instruction (Count)
system.cpu.committedInstType_0::SimdPredAlu            0      0.00%     66.79% # Class of committed instruction (Count)
system.cpu.committedInstType_0::MemRead      28361995     22.42%     89.20% # Class of committed instruction (Count)
system.cpu.committedInstType_0::MemWrite     13655558     10.79%    100.00% # Class of committed instruction (Count)
system.cpu.committedInstType_0::FloatMemRead         1664      0.00%    100.00% # Class of committed instruction (Count)
system.cpu.committedInstType_0::FloatMemWrite           64      0.00%    100.00% # Class of committed instruction (Count)
system.cpu.committedInstType_0::IprAccess            0      0.00%    100.00% # Class of committed instruction (Count)
system.cpu.committedInstType_0::InstPrefetch            0      0.00%    100.00% # Class of committed instruction (Count)
system.cpu.committedInstType_0::total       126510314                       # Class of committed instruction (Count)
system.cpu.branchPred.lookups                       0                       # Number of BP lookups (Count)
system.cpu.branchPred.condPredicted                 0                       # Number of conditional branches predicted (Count)
system.cpu.branchPred.condIncorrect                 0                       # Number of conditional branches incorrect (Count)
system.cpu.branchPred.BTBLookups                    0                       # Number of BTB lookups (Count)
system.cpu.branchPred.BTBHits                       0                       # Number of BTB hits (Count)
system.cpu.branchPred.BTBHitRatio                 nan                       # BTB Hit Ratio (Ratio)
system.cpu.branchPred.RASUsed                       0                       # Number of times the RAS was used to get a target. (Count)
system.cpu.branchPred.RASIncorrect                  0                       # Number of incorrect RAS predictions. (Count)
system.cpu.branchPred.indirectLookups               0                       # Number of indirect predictor lookups. (Count)
system.cpu.branchPred.indirectHits                  0                       # Number of indirect target hits. (Count)
system.cpu.branchPred.indirectMisses                0                       # Number of indirect misses. (Count)
system.cpu.branchPred.indirectMispredicted            0                       # Number of mispredicted indirect branches. (Count)
system.cpu.dcache.demandHits::cpu.data       42093988                       # number of demand (read+write) hits (Count)
system.cpu.dcache.demandHits::total          42093988                       # number of demand (read+write) hits (Count)
system.cpu.dcache.overallHits::cpu.data      42093988                       # number of overall hits (Count)
system.cpu.dcache.overallHits::total         42093988                       # number of overall hits (Count)
system.cpu.dcache.demandMisses::cpu.data       502892                       # number of demand (read+write) misses (Count)
system.cpu.dcache.demandMisses::total          502892                       # number of demand (read+write) misses (Count)
system.cpu.dcache.overallMisses::cpu.data       502892                       # number of overall misses (Count)
system.cpu.dcache.overallMisses::total         502892                       # number of overall misses (Count)
system.cpu.dcache.demandMissLatency::cpu.data  18996047944                       # number of demand (read+write) miss ticks (Tick)
system.cpu.dcache.demandMissLatency::total  18996047944                       # number of demand (read+write) miss ticks (Tick)
system.cpu.dcache.overallMissLatency::cpu.data  18996047944                       # number of overall miss ticks (Tick)
system.cpu.dcache.overallMissLatency::total  18996047944                       # number of overall miss ticks (Tick)
system.cpu.dcache.demandAccesses::cpu.data     42596880                       # number of demand (read+write) accesses (Count)
system.cpu.dcache.demandAccesses::total      42596880                       # number of demand (read+write) accesses (Count)
system.cpu.dcache.overallAccesses::cpu.data     42596880                       # number of overall (read+write) accesses (Count)
system.cpu.dcache.overallAccesses::total     42596880                       # number of overall (read+write) accesses (Count)
system.cpu.dcache.demandMissRate::cpu.data     0.011806                       # miss rate for demand accesses (Ratio)
system.cpu.dcache.demandMissRate::total      0.011806                       # miss rate for demand accesses (Ratio)
system.cpu.dcache.overallMissRate::cpu.data     0.011806                       # miss rate for overall accesses (Ratio)
system.cpu.dcache.overallMissRate::total     0.011806                       # miss rate for overall accesses (Ratio)
system.cpu.dcache.demandAvgMissLatency::cpu.data 37773.613309                       # average overall miss latency in ticks ((Tick/Count))
system.cpu.dcache.demandAvgMissLatency::total 37773.613309                       # average overall miss latency in ticks ((Tick/Count))
system.cpu.dcache.overallAvgMissLatency::cpu.data 37773.613309                       # average overall miss latency ((Tick/Count))
system.cpu.dcache.overallAvgMissLatency::total 37773.613309                       # average overall miss latency ((Tick/Count))
system.cpu.dcache.blockedCycles::no_mshrs            0                       # number of cycles access was blocked (Cycle)
system.cpu.dcache.blockedCycles::no_targets            0                       # number of cycles access was blocked (Cycle)
system.cpu.dcache.blockedCauses::no_mshrs            0                       # number of times access was blocked (Count)
system.cpu.dcache.blockedCauses::no_targets            0                       # number of times access was blocked (Count)
system.cpu.dcache.avgBlocked::no_mshrs            nan                       # average number of cycles each access was blocked ((Cycle/Count))
system.cpu.dcache.avgBlocked::no_targets          nan                       # average number of cycles each access was blocked ((Cycle/Count))
system.cpu.dcache.writebacks::writebacks       418697                       # number of writebacks (Count)
system.cpu.dcache.writebacks::total            418697                       # number of writebacks (Count)
system.cpu.dcache.demandMshrHits::cpu.data        80268                       # number of demand (read+write) MSHR hits (Count)
system.cpu.dcache.demandMshrHits::total         80268                       # number of demand (read+write) MSHR hits (Count)
system.cpu.dcache.overallMshrHits::cpu.data        80268                       # number of overall MSHR hits (Count)
system.cpu.dcache.overallMshrHits::total        80268                       # number of overall MSHR hits (Count)
system.cpu.dcache.demandMshrMisses::cpu.data       422624                       # number of demand (read+write) MSHR misses (Count)
system.cpu.dcache.demandMshrMisses::total       422624                       # number of demand (read+write) MSHR misses (Count)
system.cpu.dcache.overallMshrMisses::cpu.data       422624                       # number of overall MSHR misses (Count)
system.cpu.dcache.overallMshrMisses::total       422624                       # number of overall MSHR misses (Count)
system.cpu.dcache.demandMshrMissLatency::cpu.data  12729640306                       # number of demand (read+write) MSHR miss ticks (Tick)
system.cpu.dcache.demandMshrMissLatency::total  12729640306                       # number of demand (read+write) MSHR miss ticks (Tick)
system.cpu.dcache.overallMshrMissLatency::cpu.data  12729640306                       # number of overall MSHR miss ticks (Tick)
system.cpu.dcache.overallMshrMissLatency::total  12729640306                       # number of overall MSHR miss ticks (Tick)
system.cpu.dcache.demandMshrMissRate::cpu.data     0.009921                       # mshr miss ratio for demand accesses (Ratio)
system.cpu.dcache.demandMshrMissRate::total     0.009921                       # mshr miss ratio for demand accesses (Ratio)
system.cpu.dcache.overallMshrMissRate::cpu.data     0.009921                       # mshr miss ratio for overall accesses (Ratio)
system.cpu.dcache.overallMshrMissRate::total     0.009921                       # mshr miss ratio for overall accesses (Ratio)
system.cpu.dcache.demandAvgMshrMissLatency::cpu.data 30120.486073                       # average overall mshr miss latency ((Tick/Count))
system.cpu.dcache.demandAvgMshrMissLatency::total 30120.486073                       # average overall mshr miss latency ((Tick/Count))
system.cpu.dcache.overallAvgMshrMissLatency::cpu.data 30120.486073                       # average overall mshr miss latency ((Tick/Count))
system.cpu.dcache.overallAvgMshrMissLatency::total 30120.486073                       # average overall mshr miss latency ((Tick/Count))
system.cpu.dcache.replacements                 422624                       # number of replacements (Count)
system.cpu.dcache.ReadReq.hits::cpu.data     28932005                       # number of ReadReq hits (Count)
system.cpu.dcache.ReadReq.hits::total        28932005                       # number of ReadReq hits (Count)
system.cpu.dcache.ReadReq.misses::cpu.data         9254                       # number of ReadReq misses (Count)
system.cpu.dcache.ReadReq.misses::total          9254                       # number of ReadReq misses (Count)
system.cpu.dcache.ReadReq.missLatency::cpu.data    619577634                       # number of ReadReq miss ticks (Tick)
system.cpu.dcache.ReadReq.missLatency::total    619577634                       # number of ReadReq miss ticks (Tick)
system.cpu.dcache.ReadReq.accesses::cpu.data     28941259                       # number of ReadReq accesses(hits+misses) (Count)
system.cpu.dcache.ReadReq.accesses::total     28941259                       # number of ReadReq accesses(hits+misses) (Count)
system.cpu.dcache.ReadReq.missRate::cpu.data     0.000320                       # miss rate for ReadReq accesses (Ratio)
system.cpu.dcache.ReadReq.missRate::total     0.000320                       # miss rate for ReadReq accesses (Ratio)
system.cpu.dcache.ReadReq.avgMissLatency::cpu.data 66952.413443                       # average ReadReq miss latency ((Tick/Count))
system.cpu.dcache.ReadReq.avgMissLatency::total 66952.413443                       # average ReadReq miss latency ((Tick/Count))
system.cpu.dcache.ReadReq.mshrHits::cpu.data          200                       # number of ReadReq MSHR hits (Count)
system.cpu.dcache.ReadReq.mshrHits::total          200                       # number of ReadReq MSHR hits (Count)
system.cpu.dcache.ReadReq.mshrMisses::cpu.data         9054                       # number of ReadReq MSHR misses (Count)
system.cpu.dcache.ReadReq.mshrMisses::total         9054                       # number of ReadReq MSHR misses (Count)
system.cpu.dcache.ReadReq.mshrMissLatency::cpu.data    589552629                       # number of ReadReq MSHR miss ticks (Tick)
system.cpu.dcache.ReadReq.mshrMissLatency::total    589552629                       # number of ReadReq MSHR miss ticks (Tick)
system.cpu.dcache.ReadReq.mshrMissRate::cpu.data     0.000313                       # mshr miss rate for ReadReq accesses (Ratio)
system.cpu.dcache.ReadReq.mshrMissRate::total     0.000313                       # mshr miss rate for ReadReq accesses (Ratio)
system.cpu.dcache.ReadReq.avgMshrMissLatency::cpu.data 65115.156726                       # average ReadReq mshr miss latency ((Tick/Count))
system.cpu.dcache.ReadReq.avgMshrMissLatency::total 65115.156726                       # average ReadReq mshr miss latency ((Tick/Count))
system.cpu.dcache.WriteReq.hits::cpu.data     13161983                       # number of WriteReq hits (Count)
system.cpu.dcache.WriteReq.hits::total       13161983                       # number of WriteReq hits (Count)
system.cpu.dcache.WriteReq.misses::cpu.data       493638                       # number of WriteReq misses (Count)
system.cpu.dcache.WriteReq.misses::total       493638                       # number of WriteReq misses (Count)
system.cpu.dcache.WriteReq.missLatency::cpu.data  18376470310                       # number of WriteReq miss ticks (Tick)
system.cpu.dcache.WriteReq.missLatency::total  18376470310                       # number of WriteReq miss ticks (Tick)
system.cpu.dcache.WriteReq.accesses::cpu.data     13655621                       # number of WriteReq accesses(hits+misses) (Count)
system.cpu.dcache.WriteReq.accesses::total     13655621                       # number of WriteReq accesses(hits+misses) (Count)
system.cpu.dcache.WriteReq.missRate::cpu.data     0.036149                       # miss rate for WriteReq accesses (Ratio)
system.cpu.dcache.WriteReq.missRate::total     0.036149                       # miss rate for WriteReq accesses (Ratio)
system.cpu.dcache.WriteReq.avgMissLatency::cpu.data 37226.612031                       # average WriteReq miss latency ((Tick/Count))
system.cpu.dcache.WriteReq.avgMissLatency::total 37226.612031                       # average WriteReq miss latency ((Tick/Count))
system.cpu.dcache.WriteReq.mshrHits::cpu.data        80068                       # number of WriteReq MSHR hits (Count)
system.cpu.dcache.WriteReq.mshrHits::total        80068                       # number of WriteReq MSHR hits (Count)
system.cpu.dcache.WriteReq.mshrMisses::cpu.data       413570                       # number of WriteReq MSHR misses (Count)
system.cpu.dcache.WriteReq.mshrMisses::total       413570                       # number of WriteReq MSHR misses (Count)
system.cpu.dcache.WriteReq.mshrMissLatency::cpu.data  12140087677                       # number of WriteReq MSHR miss ticks (Tick)
system.cpu.dcache.WriteReq.mshrMissLatency::total  12140087677                       # number of WriteReq MSHR miss ticks (Tick)
system.cpu.dcache.WriteReq.mshrMissRate::cpu.data     0.030286                       # mshr miss rate for WriteReq accesses (Ratio)
system.cpu.dcache.WriteReq.mshrMissRate::total     0.030286                       # mshr miss rate for WriteReq accesses (Ratio)
system.cpu.dcache.WriteReq.avgMshrMissLatency::cpu.data 29354.372118                       # average WriteReq mshr miss latency ((Tick/Count))
system.cpu.dcache.WriteReq.avgMshrMissLatency::total 29354.372118                       # average WriteReq mshr miss latency ((Tick/Count))
system.cpu.dcache.power_state.pwrStateResidencyTicks::UNDEFINED 125636428154                       # Cumulative time (in ticks) in various power states (Tick)
system.cpu.dcache.tags.tagsInUse                  256                       # Average ticks per tags in use ((Tick/Count))
system.cpu.dcache.tags.totalRefs              9348435                       # Total number of references to valid blocks. (Count)
system.cpu.dcache.tags.sampledRefs             422624                       # Sample count of references to valid blocks. (Count)
system.cpu.dcache.tags.avgRefs              22.119981                       # Average number of references to valid blocks. ((Count/Count))
system.cpu.dcache.tags.warmupTick            93380667                       # The tick when the warmup percentage was hit. (Tick)
system.cpu.dcache.tags.occupancies::cpu.data          256                       # Average occupied blocks per tick, per requestor ((Count/Tick))
system.cpu.dcache.tags.avgOccs::cpu.data            1                       # Average percentage of cache occupancy ((Ratio/Tick))
system.cpu.dcache.tags.avgOccs::total               1                       # Average percentage of cache occupancy ((Ratio/Tick))
system.cpu.dcache.tags.occupanciesTaskId::1024          256                       # Occupied blocks per task id (Count)
system.cpu.dcache.tags.ageTaskId_1024::0           41                       # Occupied blocks per task id, per block age (Count)
system.cpu.dcache.tags.ageTaskId_1024::1          123                       # Occupied blocks per task id, per block age (Count)
system.cpu.dcache.tags.ageTaskId_1024::2           91                       # Occupied blocks per task id, per block age (Count)
system.cpu.dcache.tags.ageTaskId_1024::4            1                       # Occupied blocks per task id, per block age (Count)
system.cpu.dcache.tags.ratioOccsTaskId::1024            1                       # Ratio of occupied blocks and all blocks, per task id (Ratio)
system.cpu.dcache.tags.tagAccesses          341197664                       # Number of tag accesses (Count)
system.cpu.dcache.tags.dataAccesses         341197664                       # Number of data accesses (Count)
system.cpu.dcache.tags.power_state.pwrStateResidencyTicks::UNDEFINED 125636428154                       # Cumulative time (in ticks) in various power states (Tick)
system.cpu.dtb_walker_cache.blockedCycles::no_mshrs            0                       # number of cycles access was blocked (Cycle)
system.cpu.dtb_walker_cache.blockedCycles::no_targets            0                       # number of cycles access was blocked (Cycle)
system.cpu.dtb_walker_cache.blockedCauses::no_mshrs            0                       # number of times access was blocked (Count)
system.cpu.dtb_walker_cache.blockedCauses::no_targets            0                       # number of times access was blocked (Count)
system.cpu.dtb_walker_cache.avgBlocked::no_mshrs          nan                       # average number of cycles each access was blocked ((Cycle/Count))
system.cpu.dtb_walker_cache.avgBlocked::no_targets          nan                       # average number of cycles each access was blocked ((Cycle/Count))
system.cpu.dtb_walker_cache.replacements            0                       # number of replacements (Count)
system.cpu.dtb_walker_cache.power_state.pwrStateResidencyTicks::UNDEFINED 125636428154                       # Cumulative time (in ticks) in various power states (Tick)
system.cpu.dtb_walker_cache.tags.tagsInUse            0                       # Average ticks per tags in use ((Tick/Count))
system.cpu.dtb_walker_cache.tags.totalRefs            0                       # Total number of references to valid blocks. (Count)
system.cpu.dtb_walker_cache.tags.sampledRefs            0                       # Sample count of references to valid blocks. (Count)
system.cpu.dtb_walker_cache.tags.avgRefs          nan                       # Average number of references to valid blocks. ((Count/Count))
system.cpu.dtb_walker_cache.tags.warmupTick            0                       # The tick when the warmup percentage was hit. (Tick)
system.cpu.dtb_walker_cache.tags.tagAccesses            0                       # Number of tag accesses (Count)
system.cpu.dtb_walker_cache.tags.dataAccesses            0                       # Number of data accesses (Count)
system.cpu.dtb_walker_cache.tags.power_state.pwrStateResidencyTicks::UNDEFINED 125636428154                       # Cumulative time (in ticks) in various power states (Tick)
system.cpu.fetch2.intInstructions                   0                       # Number of integer instructions successfully decoded (Count)
system.cpu.fetch2.fpInstructions                    0                       # Number of floating point instructions successfully decoded (Count)
system.cpu.fetch2.vecInstructions                   0                       # Number of SIMD instructions successfully decoded (Count)
system.cpu.fetch2.loadInstructions                  0                       # Number of memory load instructions successfully decoded (Count)
system.cpu.fetch2.storeInstructions                 0                       # Number of memory store instructions successfully decoded (Count)
system.cpu.fetch2.amoInstructions                   0                       # Number of memory atomic instructions successfully decoded (Count)
system.cpu.icache.demandHits::cpu.inst       21908077                       # number of demand (read+write) hits (Count)
system.cpu.icache.demandHits::total          21908077                       # number of demand (read+write) hits (Count)
system.cpu.icache.overallHits::cpu.inst      21908077                       # number of overall hits (Count)
system.cpu.icache.overallHits::total         21908077                       # number of overall hits (Count)
system.cpu.icache.demandMisses::cpu.inst         3035                       # number of demand (read+write) misses (Count)
system.cpu.icache.demandMisses::total            3035                       # number of demand (read+write) misses (Count)
system.cpu.icache.overallMisses::cpu.inst         3035                       # number of overall misses (Count)
system.cpu.icache.overallMisses::total           3035                       # number of overall misses (Count)
system.cpu.icache.demandMissLatency::cpu.inst    108612279                       # number of demand (read+write) miss ticks (Tick)
system.cpu.icache.demandMissLatency::total    108612279                       # number of demand (read+write) miss ticks (Tick)
system.cpu.icache.overallMissLatency::cpu.inst    108612279                       # number of overall miss ticks (Tick)
system.cpu.icache.overallMissLatency::total    108612279                       # number of overall miss ticks (Tick)
system.cpu.icache.demandAccesses::cpu.inst     21911112                       # number of demand (read+write) accesses (Count)
system.cpu.icache.demandAccesses::total      21911112                       # number of demand (read+write) accesses (Count)
system.cpu.icache.overallAccesses::cpu.inst     21911112                       # number of overall (read+write) accesses (Count)
system.cpu.icache.overallAccesses::total     21911112                       # number of overall (read+write) accesses (Count)
system.cpu.icache.demandMissRate::cpu.inst     0.000139                       # miss rate for demand accesses (Ratio)
system.cpu.icache.demandMissRate::total      0.000139                       # miss rate for demand accesses (Ratio)
system.cpu.icache.overallMissRate::cpu.inst     0.000139                       # miss rate for overall accesses (Ratio)
system.cpu.icache.overallMissRate::total     0.000139                       # miss rate for overall accesses (Ratio)
system.cpu.icache.demandAvgMissLatency::cpu.inst 35786.582867                       # average overall miss latency in ticks ((Tick/Count))
system.cpu.icache.demandAvgMissLatency::total 35786.582867                       # average overall miss latency in ticks ((Tick/Count))
system.cpu.icache.overallAvgMissLatency::cpu.inst 35786.582867                       # average overall miss latency ((Tick/Count))
system.cpu.icache.overallAvgMissLatency::total 35786.582867                       # average overall miss latency ((Tick/Count))
system.cpu.icache.blockedCycles::no_mshrs            0                       # number of cycles access was blocked (Cycle)
system.cpu.icache.blockedCycles::no_targets            0                       # number of cycles access was blocked (Cycle)
system.cpu.icache.blockedCauses::no_mshrs            0                       # number of times access was blocked (Count)
system.cpu.icache.blockedCauses::no_targets            0                       # number of times access was blocked (Count)
system.cpu.icache.avgBlocked::no_mshrs            nan                       # average number of cycles each access was blocked ((Cycle/Count))
system.cpu.icache.avgBlocked::no_targets          nan                       # average number of cycles each access was blocked ((Cycle/Count))
system.cpu.icache.writebacks::writebacks         3034                       # number of writebacks (Count)
system.cpu.icache.writebacks::total              3034                       # number of writebacks (Count)
system.cpu.icache.demandMshrMisses::cpu.inst         3035                       # number of demand (read+write) MSHR misses (Count)
system.cpu.icache.demandMshrMisses::total         3035                       # number of demand (read+write) MSHR misses (Count)
system.cpu.icache.overallMshrMisses::cpu.inst         3035                       # number of overall MSHR misses (Count)
system.cpu.icache.overallMshrMisses::total         3035                       # number of overall MSHR misses (Count)
system.cpu.icache.demandMshrMissLatency::cpu.inst    104564923                       # number of demand (read+write) MSHR miss ticks (Tick)
system.cpu.icache.demandMshrMissLatency::total    104564923                       # number of demand (read+write) MSHR miss ticks (Tick)
system.cpu.icache.overallMshrMissLatency::cpu.inst    104564923                       # number of overall MSHR miss ticks (Tick)
system.cpu.icache.overallMshrMissLatency::total    104564923                       # number of overall MSHR miss ticks (Tick)
system.cpu.icache.demandMshrMissRate::cpu.inst     0.000139                       # mshr miss ratio for demand accesses (Ratio)
system.cpu.icache.demandMshrMissRate::total     0.000139                       # mshr miss ratio for demand accesses (Ratio)
system.cpu.icache.overallMshrMissRate::cpu.inst     0.000139                       # mshr miss ratio for overall accesses (Ratio)
system.cpu.icache.overallMshrMissRate::total     0.000139                       # mshr miss ratio for overall accesses (Ratio)
system.cpu.icache.demandAvgMshrMissLatency::cpu.inst 34453.022405                       # average overall mshr miss latency ((Tick/Count))
system.cpu.icache.demandAvgMshrMissLatency::total 34453.022405                       # average overall mshr miss latency ((Tick/Count))
system.cpu.icache.overallAvgMshrMissLatency::cpu.inst 34453.022405                       # average overall mshr miss latency ((Tick/Count))
system.cpu.icache.overallAvgMshrMissLatency::total 34453.022405                       # average overall mshr miss latency ((Tick/Count))
system.cpu.icache.replacements                   3034                       # number of replacements (Count)
system.cpu.icache.ReadReq.hits::cpu.inst     21908077                       # number of ReadReq hits (Count)
system.cpu.icache.ReadReq.hits::total        21908077                       # number of ReadReq hits (Count)
system.cpu.icache.ReadReq.misses::cpu.inst         3035                       # number of ReadReq misses (Count)
system.cpu.icache.ReadReq.misses::total          3035                       # number of ReadReq misses (Count)
system.cpu.icache.ReadReq.missLatency::cpu.inst    108612279                       # number of ReadReq miss ticks (Tick)
system.cpu.icache.ReadReq.missLatency::total    108612279                       # number of ReadReq miss ticks (Tick)
system.cpu.icache.ReadReq.accesses::cpu.inst     21911112                       # number of ReadReq accesses(hits+misses) (Count)
system.cpu.icache.ReadReq.accesses::total     21911112                       # number of ReadReq accesses(hits+misses) (Count)
system.cpu.icache.ReadReq.missRate::cpu.inst     0.000139                       # miss rate for ReadReq accesses (Ratio)
system.cpu.icache.ReadReq.missRate::total     0.000139                       # miss rate for ReadReq accesses (Ratio)
system.cpu.icache.ReadReq.avgMissLatency::cpu.inst 35786.582867                       # average ReadReq miss latency ((Tick/Count))
system.cpu.icache.ReadReq.avgMissLatency::total 35786.582867                       # average ReadReq miss latency ((Tick/Count))
system.cpu.icache.ReadReq.mshrMisses::cpu.inst         3035                       # number of ReadReq MSHR misses (Count)
system.cpu.icache.ReadReq.mshrMisses::total         3035                       # number of ReadReq MSHR misses (Count)
system.cpu.icache.ReadReq.mshrMissLatency::cpu.inst    104564923                       # number of ReadReq MSHR miss ticks (Tick)
system.cpu.icache.ReadReq.mshrMissLatency::total    104564923                       # number of ReadReq MSHR miss ticks (Tick)
system.cpu.icache.ReadReq.mshrMissRate::cpu.inst     0.000139                       # mshr miss rate for ReadReq accesses (Ratio)
system.cpu.icache.ReadReq.mshrMissRate::total     0.000139                       # mshr miss rate for ReadReq accesses (Ratio)
system.cpu.icache.ReadReq.avgMshrMissLatency::cpu.inst 34453.022405                       # average ReadReq mshr miss latency ((Tick/Count))
system.cpu.icache.ReadReq.avgMshrMissLatency::total 34453.022405                       # average ReadReq mshr miss latency ((Tick/Count))
system.cpu.icache.power_state.pwrStateResidencyTicks::UNDEFINED 125636428154                       # Cumulative time (in ticks) in various power states (Tick)
system.cpu.icache.tags.tagsInUse                  256                       # Average ticks per tags in use ((Tick/Count))
system.cpu.icache.tags.totalRefs               221049                       # Total number of references to valid blocks. (Count)
system.cpu.icache.tags.sampledRefs               3034                       # Sample count of references to valid blocks. (Count)
system.cpu.icache.tags.avgRefs              72.857284                       # Average number of references to valid blocks. ((Count/Count))
system.cpu.icache.tags.warmupTick            35174245                       # The tick when the warmup percentage was hit. (Tick)
system.cpu.icache.tags.occupancies::cpu.inst          256                       # Average occupied blocks per tick, per requestor ((Count/Tick))
system.cpu.icache.tags.avgOccs::cpu.inst            1                       # Average percentage of cache occupancy ((Ratio/Tick))
system.cpu.icache.tags.avgOccs::total               1                       # Average percentage of cache occupancy ((Ratio/Tick))
system.cpu.icache.tags.occupanciesTaskId::1024          256                       # Occupied blocks per task id (Count)
system.cpu.icache.tags.ageTaskId_1024::0           12                       # Occupied blocks per task id, per block age (Count)
system.cpu.icache.tags.ageTaskId_1024::4          244                       # Occupied blocks per task id, per block age (Count)
system.cpu.icache.tags.ratioOccsTaskId::1024            1                       # Ratio of occupied blocks and all blocks, per task id (Ratio)
system.cpu.icache.tags.tagAccesses          175291930                       # Number of tag accesses (Count)
system.cpu.icache.tags.dataAccesses         175291930                       # Number of data accesses (Count)
system.cpu.icache.tags.power_state.pwrStateResidencyTicks::UNDEFINED 125636428154                       # Cumulative time (in ticks) in various power states (Tick)
system.cpu.interrupts.clk_domain.clock          10672                       # Clock period in ticks (Tick)
system.cpu.itb_walker_cache.blockedCycles::no_mshrs            0                       # number of cycles access was blocked (Cycle)
system.cpu.itb_walker_cache.blockedCycles::no_targets            0                       # number of cycles access was blocked (Cycle)
system.cpu.itb_walker_cache.blockedCauses::no_mshrs            0                       # number of times access was blocked (Count)
system.cpu.itb_walker_cache.blockedCauses::no_targets            0                       # number of times access was blocked (Count)
system.cpu.itb_walker_cache.avgBlocked::no_mshrs          nan                       # average number of cycles each access was blocked ((Cycle/Count))
system.cpu.itb_walker_cache.avgBlocked::no_targets          nan                       # average number of cycles each access was blocked ((Cycle/Count))
system.cpu.itb_walker_cache.replacements            0                       # number of replacements (Count)
system.cpu.itb_walker_cache.power_state.pwrStateResidencyTicks::UNDEFINED 125636428154                       # Cumulative time (in ticks) in various power states (Tick)
system.cpu.itb_walker_cache.tags.tagsInUse            0                       # Average ticks per tags in use ((Tick/Count))
system.cpu.itb_walker_cache.tags.totalRefs            0                       # Total number of references to valid blocks. (Count)
system.cpu.itb_walker_cache.tags.sampledRefs            0                       # Sample count of references to valid blocks. (Count)
system.cpu.itb_walker_cache.tags.avgRefs          nan                       # Average number of references to valid blocks. ((Count/Count))
system.cpu.itb_walker_cache.tags.warmupTick            0                       # The tick when the warmup percentage was hit. (Tick)
system.cpu.itb_walker_cache.tags.tagAccesses            0                       # Number of tag accesses (Count)
system.cpu.itb_walker_cache.tags.dataAccesses            0                       # Number of data accesses (Count)
system.cpu.itb_walker_cache.tags.power_state.pwrStateResidencyTicks::UNDEFINED 125636428154                       # Cumulative time (in ticks) in various power states (Tick)
system.cpu.mmu.dtb.rdAccesses                35755197                       # TLB accesses on read requests (Count)
system.cpu.mmu.dtb.wrAccesses                13669852                       # TLB accesses on write requests (Count)
system.cpu.mmu.dtb.rdMisses                      1552                       # TLB misses on read requests (Count)
system.cpu.mmu.dtb.wrMisses                      6806                       # TLB misses on write requests (Count)
system.cpu.mmu.dtb.walker.power_state.pwrStateResidencyTicks::UNDEFINED 125636428154                       # Cumulative time (in ticks) in various power states (Tick)
system.cpu.mmu.itb.rdAccesses                       0                       # TLB accesses on read requests (Count)
system.cpu.mmu.itb.wrAccesses                21911132                       # TLB accesses on write requests (Count)
system.cpu.mmu.itb.rdMisses                         0                       # TLB misses on read requests (Count)
system.cpu.mmu.itb.wrMisses                        38                       # TLB misses on write requests (Count)
system.cpu.mmu.itb.walker.power_state.pwrStateResidencyTicks::UNDEFINED 125636428154                       # Cumulative time (in ticks) in various power states (Tick)
system.cpu.power_state.pwrStateResidencyTicks::ON 125636428154                       # Cumulative time (in ticks) in various power states (Tick)
system.cpu.thread_0.numInsts                 70311691                       # Number of Instructions committed (Count)
system.cpu.thread_0.numOps                  126510314                       # Number of Ops committed (Count)
system.cpu.thread_0.numMemRefs                      0                       # Number of Memory References (Count)
system.cpu.workload.numSyscalls                   302                       # Number of system calls (Count)
system.cpu_clk_domain.clock                       667                       # Clock period in ticks (Tick)
system.cpu_voltage_domain.voltage                   1                       # Voltage in Volts (Volt)
system.l2.demandHits::cpu.inst                   2299                       # number of demand (read+write) hits (Count)
system.l2.demandHits::cpu.data                 335526                       # number of demand (read+write) hits (Count)
system.l2.demandHits::total                    337825                       # number of demand (read+write) hits (Count)
system.l2.overallHits::cpu.inst                  2299                       # number of overall hits (Count)
system.l2.overallHits::cpu.data                335526                       # number of overall hits (Count)
system.l2.overallHits::total                   337825                       # number of overall hits (Count)
system.l2.demandMisses::cpu.inst                  736                       # number of demand (read+write) misses (Count)
system.l2.demandMisses::cpu.data                87098                       # number of demand (read+write) misses (Count)
system.l2.demandMisses::total                   87834                       # number of demand (read+write) misses (Count)
system.l2.overallMisses::cpu.inst                 736                       # number of overall misses (Count)
system.l2.overallMisses::cpu.data               87098                       # number of overall misses (Count)
system.l2.overallMisses::total                  87834                       # number of overall misses (Count)
system.l2.demandMissLatency::cpu.inst        66285126                       # number of demand (read+write) miss ticks (Tick)
system.l2.demandMissLatency::cpu.data      7184188966                       # number of demand (read+write) miss ticks (Tick)
system.l2.demandMissLatency::total         7250474092                       # number of demand (read+write) miss ticks (Tick)
system.l2.overallMissLatency::cpu.inst       66285126                       # number of overall miss ticks (Tick)
system.l2.overallMissLatency::cpu.data     7184188966                       # number of overall miss ticks (Tick)
system.l2.overallMissLatency::total        7250474092                       # number of overall miss ticks (Tick)
system.l2.demandAccesses::cpu.inst               3035                       # number of demand (read+write) accesses (Count)
system.l2.demandAccesses::cpu.data             422624                       # number of demand (read+write) accesses (Count)
system.l2.demandAccesses::total                425659                       # number of demand (read+write) accesses (Count)
system.l2.overallAccesses::cpu.inst              3035                       # number of overall (read+write) accesses (Count)
system.l2.overallAccesses::cpu.data            422624                       # number of overall (read+write) accesses (Count)
system.l2.overallAccesses::total               425659                       # number of overall (read+write) accesses (Count)
system.l2.demandMissRate::cpu.inst           0.242504                       # miss rate for demand accesses (Ratio)
system.l2.demandMissRate::cpu.data           0.206089                       # miss rate for demand accesses (Ratio)
system.l2.demandMissRate::total              0.206348                       # miss rate for demand accesses (Ratio)
system.l2.overallMissRate::cpu.inst          0.242504                       # miss rate for overall accesses (Ratio)
system.l2.overallMissRate::cpu.data          0.206089                       # miss rate for overall accesses (Ratio)
system.l2.overallMissRate::total             0.206348                       # miss rate for overall accesses (Ratio)
system.l2.demandAvgMissLatency::cpu.inst 90061.312500                       # average overall miss latency in ticks ((Tick/Count))
system.l2.demandAvgMissLatency::cpu.data 82483.971687                       # average overall miss latency in ticks ((Tick/Count))
system.l2.demandAvgMissLatency::total    82547.465583                       # average overall miss latency in ticks ((Tick/Count))
system.l2.overallAvgMissLatency::cpu.inst 90061.312500                       # average overall miss latency ((Tick/Count))
system.l2.overallAvgMissLatency::cpu.data 82483.971687                       # average overall miss latency ((Tick/Count))
system.l2.overallAvgMissLatency::total   82547.465583                       # average overall miss latency ((Tick/Count))
system.l2.blockedCycles::no_mshrs                   0                       # number of cycles access was blocked (Cycle)
system.l2.blockedCycles::no_targets                 0                       # number of cycles access was blocked (Cycle)
system.l2.blockedCauses::no_mshrs                   0                       # number of times access was blocked (Count)
system.l2.blockedCauses::no_targets                 0                       # number of times access was blocked (Count)
system.l2.avgBlocked::no_mshrs                    nan                       # average number of cycles each access was blocked ((Cycle/Count))
system.l2.avgBlocked::no_targets                  nan                       # average number of cycles each access was blocked ((Cycle/Count))
system.l2.writebacks::writebacks                79690                       # number of writebacks (Count)
system.l2.writebacks::total                     79690                       # number of writebacks (Count)
system.l2.demandMshrMisses::cpu.inst              736                       # number of demand (read+write) MSHR misses (Count)
system.l2.demandMshrMisses::cpu.data            87098                       # number of demand (read+write) MSHR misses (Count)
system.l2.demandMshrMisses::total               87834                       # number of demand (read+write) MSHR misses (Count)
system.l2.overallMshrMisses::cpu.inst             736                       # number of overall MSHR misses (Count)
system.l2.overallMshrMisses::cpu.data           87098                       # number of overall MSHR misses (Count)
system.l2.overallMshrMisses::total              87834                       # number of overall MSHR misses (Count)
system.l2.demandMshrMissLatency::cpu.inst     56249288                       # number of demand (read+write) MSHR miss ticks (Tick)
system.l2.demandMshrMissLatency::cpu.data   5999872516                       # number of demand (read+write) MSHR miss ticks (Tick)
system.l2.demandMshrMissLatency::total     6056121804                       # number of demand (read+write) MSHR miss ticks (Tick)
system.l2.overallMshrMissLatency::cpu.inst     56249288                       # number of overall MSHR miss ticks (Tick)
system.l2.overallMshrMissLatency::cpu.data   5999872516                       # number of overall MSHR miss ticks (Tick)
system.l2.overallMshrMissLatency::total    6056121804                       # number of overall MSHR miss ticks (Tick)
system.l2.demandMshrMissRate::cpu.inst       0.242504                       # mshr miss ratio for demand accesses (Ratio)
system.l2.demandMshrMissRate::cpu.data       0.206089                       # mshr miss ratio for demand accesses (Ratio)
system.l2.demandMshrMissRate::total          0.206348                       # mshr miss ratio for demand accesses (Ratio)
system.l2.overallMshrMissRate::cpu.inst      0.242504                       # mshr miss ratio for overall accesses (Ratio)
system.l2.overallMshrMissRate::cpu.data      0.206089                       # mshr miss ratio for overall accesses (Ratio)
system.l2.overallMshrMissRate::total         0.206348                       # mshr miss ratio for overall accesses (Ratio)
system.l2.demandAvgMshrMissLatency::cpu.inst 76425.663043                       # average overall mshr miss latency ((Tick/Count))
system.l2.demandAvgMshrMissLatency::cpu.data 68886.455671                       # average overall mshr miss latency ((Tick/Count))
system.l2.demandAvgMshrMissLatency::total 68949.630029                       # average overall mshr miss latency ((Tick/Count))
system.l2.overallAvgMshrMissLatency::cpu.inst 76425.663043                       # average overall mshr miss latency ((Tick/Count))
system.l2.overallAvgMshrMissLatency::cpu.data 68886.455671                       # average overall mshr miss latency ((Tick/Count))
system.l2.overallAvgMshrMissLatency::total 68949.630029                       # average overall mshr miss latency ((Tick/Count))
system.l2.replacements                          87363                       # number of replacements (Count)
system.l2.ReadCleanReq.hits::cpu.inst            2299                       # number of ReadCleanReq hits (Count)
system.l2.ReadCleanReq.hits::total               2299                       # number of ReadCleanReq hits (Count)
system.l2.ReadCleanReq.misses::cpu.inst           736                       # number of ReadCleanReq misses (Count)
system.l2.ReadCleanReq.misses::total              736                       # number of ReadCleanReq misses (Count)
system.l2.ReadCleanReq.missLatency::cpu.inst     66285126                       # number of ReadCleanReq miss ticks (Tick)
system.l2.ReadCleanReq.missLatency::total     66285126                       # number of ReadCleanReq miss ticks (Tick)
system.l2.ReadCleanReq.accesses::cpu.inst         3035                       # number of ReadCleanReq accesses(hits+misses) (Count)
system.l2.ReadCleanReq.accesses::total           3035                       # number of ReadCleanReq accesses(hits+misses) (Count)
system.l2.ReadCleanReq.missRate::cpu.inst     0.242504                       # miss rate for ReadCleanReq accesses (Ratio)
system.l2.ReadCleanReq.missRate::total       0.242504                       # miss rate for ReadCleanReq accesses (Ratio)
system.l2.ReadCleanReq.avgMissLatency::cpu.inst 90061.312500                       # average ReadCleanReq miss latency ((Tick/Count))
system.l2.ReadCleanReq.avgMissLatency::total 90061.312500                       # average ReadCleanReq miss latency ((Tick/Count))
system.l2.ReadCleanReq.mshrMisses::cpu.inst          736                       # number of ReadCleanReq MSHR misses (Count)
system.l2.ReadCleanReq.mshrMisses::total          736                       # number of ReadCleanReq MSHR misses (Count)
system.l2.ReadCleanReq.mshrMissLatency::cpu.inst     56249288                       # number of ReadCleanReq MSHR miss ticks (Tick)
system.l2.ReadCleanReq.mshrMissLatency::total     56249288                       # number of ReadCleanReq MSHR miss ticks (Tick)
system.l2.ReadCleanReq.mshrMissRate::cpu.inst     0.242504                       # mshr miss rate for ReadCleanReq accesses (Ratio)
system.l2.ReadCleanReq.mshrMissRate::total     0.242504                       # mshr miss rate for ReadCleanReq accesses (Ratio)
system.l2.ReadCleanReq.avgMshrMissLatency::cpu.inst 76425.663043                       # average ReadCleanReq mshr miss latency ((Tick/Count))
system.l2.ReadCleanReq.avgMshrMissLatency::total 76425.663043                       # average ReadCleanReq mshr miss latency ((Tick/Count))
system.l2.ReadExReq.hits::cpu.data             332527                       # number of ReadExReq hits (Count)
system.l2.ReadExReq.hits::total                332527                       # number of ReadExReq hits (Count)
system.l2.ReadExReq.misses::cpu.data            81043                       # number of ReadExReq misses (Count)
system.l2.ReadExReq.misses::total               81043                       # number of ReadExReq misses (Count)
system.l2.ReadExReq.missLatency::cpu.data   6654827751                       # number of ReadExReq miss ticks (Tick)
system.l2.ReadExReq.missLatency::total     6654827751                       # number of ReadExReq miss ticks (Tick)
system.l2.ReadExReq.accesses::cpu.data         413570                       # number of ReadExReq accesses(hits+misses) (Count)
system.l2.ReadExReq.accesses::total            413570                       # number of ReadExReq accesses(hits+misses) (Count)
system.l2.ReadExReq.missRate::cpu.data       0.195960                       # miss rate for ReadExReq accesses (Ratio)
system.l2.ReadExReq.missRate::total          0.195960                       # miss rate for ReadExReq accesses (Ratio)
system.l2.ReadExReq.avgMissLatency::cpu.data 82114.775502                       # average ReadExReq miss latency ((Tick/Count))
system.l2.ReadExReq.avgMissLatency::total 82114.775502                       # average ReadExReq miss latency ((Tick/Count))
system.l2.ReadExReq.mshrMisses::cpu.data        81043                       # number of ReadExReq MSHR misses (Count)
system.l2.ReadExReq.mshrMisses::total           81043                       # number of ReadExReq MSHR misses (Count)
system.l2.ReadExReq.mshrMissLatency::cpu.data   5553140814                       # number of ReadExReq MSHR miss ticks (Tick)
system.l2.ReadExReq.mshrMissLatency::total   5553140814                       # number of ReadExReq MSHR miss ticks (Tick)
system.l2.ReadExReq.mshrMissRate::cpu.data     0.195960                       # mshr miss rate for ReadExReq accesses (Ratio)
system.l2.ReadExReq.mshrMissRate::total      0.195960                       # mshr miss rate for ReadExReq accesses (Ratio)
system.l2.ReadExReq.avgMshrMissLatency::cpu.data 68520.918697                       # average ReadExReq mshr miss latency ((Tick/Count))
system.l2.ReadExReq.avgMshrMissLatency::total 68520.918697                       # average ReadExReq mshr miss latency ((Tick/Count))
system.l2.ReadSharedReq.hits::cpu.data           2999                       # number of ReadSharedReq hits (Count)
system.l2.ReadSharedReq.hits::total              2999                       # number of ReadSharedReq hits (Count)
system.l2.ReadSharedReq.misses::cpu.data         6055                       # number of ReadSharedReq misses (Count)
system.l2.ReadSharedReq.misses::total            6055                       # number of ReadSharedReq misses (Count)
system.l2.ReadSharedReq.missLatency::cpu.data    529361215                       # number of ReadSharedReq miss ticks (Tick)
system.l2.ReadSharedReq.missLatency::total    529361215                       # number of ReadSharedReq miss ticks (Tick)
system.l2.ReadSharedReq.accesses::cpu.data         9054                       # number of ReadSharedReq accesses(hits+misses) (Count)
system.l2.ReadSharedReq.accesses::total          9054                       # number of ReadSharedReq accesses(hits+misses) (Count)
system.l2.ReadSharedReq.missRate::cpu.data     0.668765                       # miss rate for ReadSharedReq accesses (Ratio)
system.l2.ReadSharedReq.missRate::total      0.668765                       # miss rate for ReadSharedReq accesses (Ratio)
system.l2.ReadSharedReq.avgMissLatency::cpu.data 87425.469034                       # average ReadSharedReq miss latency ((Tick/Count))
system.l2.ReadSharedReq.avgMissLatency::total 87425.469034                       # average ReadSharedReq miss latency ((Tick/Count))
system.l2.ReadSharedReq.mshrMisses::cpu.data         6055                       # number of ReadSharedReq MSHR misses (Count)
system.l2.ReadSharedReq.mshrMisses::total         6055                       # number of ReadSharedReq MSHR misses (Count)
system.l2.ReadSharedReq.mshrMissLatency::cpu.data    446731702                       # number of ReadSharedReq MSHR miss ticks (Tick)
system.l2.ReadSharedReq.mshrMissLatency::total    446731702                       # number of ReadSharedReq MSHR miss ticks (Tick)
system.l2.ReadSharedReq.mshrMissRate::cpu.data     0.668765                       # mshr miss rate for ReadSharedReq accesses (Ratio)
system.l2.ReadSharedReq.mshrMissRate::total     0.668765                       # mshr miss rate for ReadSharedReq accesses (Ratio)
system.l2.ReadSharedReq.avgMshrMissLatency::cpu.data 73778.976383                       # average ReadSharedReq mshr miss latency ((Tick/Count))
system.l2.ReadSharedReq.avgMshrMissLatency::total 73778.976383                       # average ReadSharedReq mshr miss latency ((Tick/Count))
system.l2.WritebackClean.hits::writebacks         3033                       # number of WritebackClean hits (Count)
system.l2.WritebackClean.hits::total             3033                       # number of WritebackClean hits (Count)
system.l2.WritebackClean.accesses::writebacks         3033                       # number of WritebackClean accesses(hits+misses) (Count)
system.l2.WritebackClean.accesses::total         3033                       # number of WritebackClean accesses(hits+misses) (Count)
system.l2.WritebackDirty.hits::writebacks       418697                       # number of WritebackDirty hits (Count)
system.l2.WritebackDirty.hits::total           418697                       # number of WritebackDirty hits (Count)
system.l2.WritebackDirty.accesses::writebacks       418697                       # number of WritebackDirty accesses(hits+misses) (Count)
system.l2.WritebackDirty.accesses::total       418697                       # number of WritebackDirty accesses(hits+misses) (Count)
system.l2.power_state.pwrStateResidencyTicks::UNDEFINED 125636428154                       # Cumulative time (in ticks) in various power states (Tick)
system.l2.tags.tagsInUse                  4090.658707                       # Average ticks per tags in use ((Tick/Count))
system.l2.tags.totalRefs                       178064                       # Total number of references to valid blocks. (Count)
system.l2.tags.sampledRefs                      87363                       # Sample count of references to valid blocks. (Count)
system.l2.tags.avgRefs                       2.038208                       # Average number of references to valid blocks. ((Count/Count))
system.l2.tags.warmupTick                  1182112000                       # The tick when the warmup percentage was hit. (Tick)
system.l2.tags.occupancies::writebacks      11.171824                       # Average occupied blocks per tick, per requestor ((Count/Tick))
system.l2.tags.occupancies::cpu.inst        12.006257                       # Average occupied blocks per tick, per requestor ((Count/Tick))
system.l2.tags.occupancies::cpu.data      4067.480625                       # Average occupied blocks per tick, per requestor ((Count/Tick))
system.l2.tags.avgOccs::writebacks           0.002727                       # Average percentage of cache occupancy ((Ratio/Tick))
system.l2.tags.avgOccs::cpu.inst             0.002931                       # Average percentage of cache occupancy ((Ratio/Tick))
system.l2.tags.avgOccs::cpu.data             0.993037                       # Average percentage of cache occupancy ((Ratio/Tick))
system.l2.tags.avgOccs::total                0.998696                       # Average percentage of cache occupancy ((Ratio/Tick))
system.l2.tags.occupanciesTaskId::1024           4096                       # Occupied blocks per task id (Count)
system.l2.tags.ageTaskId_1024::0                   56                       # Occupied blocks per task id, per block age (Count)
system.l2.tags.ageTaskId_1024::1                   47                       # Occupied blocks per task id, per block age (Count)
system.l2.tags.ageTaskId_1024::2                  571                       # Occupied blocks per task id, per block age (Count)
system.l2.tags.ageTaskId_1024::3                   51                       # Occupied blocks per task id, per block age (Count)
system.l2.tags.ageTaskId_1024::4                 3371                       # Occupied blocks per task id, per block age (Count)
system.l2.tags.ratioOccsTaskId::1024                1                       # Ratio of occupied blocks and all blocks, per task id (Ratio)
system.l2.tags.tagAccesses                    6899760                       # Number of tag accesses (Count)
system.l2.tags.dataAccesses                   6899760                       # Number of data accesses (Count)
system.l2.tags.power_state.pwrStateResidencyTicks::UNDEFINED 125636428154                       # Cumulative time (in ticks) in various power states (Tick)
system.mem_ctrls.avgPriority_writebacks::samples     79690.00                       # Average QoS priority value for accepted requests (Count)
system.mem_ctrls.avgPriority_cpu.inst::samples       735.00                       # Average QoS priority value for accepted requests (Count)
system.mem_ctrls.avgPriority_cpu.data::samples     86075.00                       # Average QoS priority value for accepted requests (Count)
system.mem_ctrls.priorityMinLatency      0.000000016842                       # per QoS priority minimum request to response latency (Second)
system.mem_ctrls.priorityMaxLatency      0.000952666012                       # per QoS priority maximum request to response latency (Second)
system.mem_ctrls.numReadWriteTurnArounds         4454                       # Number of turnarounds from READ to WRITE (Count)
system.mem_ctrls.numWriteReadTurnArounds         4454                       # Number of turnarounds from WRITE to READ (Count)
system.mem_ctrls.numStayReadState              284989                       # Number of times bus staying in READ state (Count)
system.mem_ctrls.numStayWriteState              75267                       # Number of times bus staying in WRITE state (Count)
system.mem_ctrls.readReqs                       87833                       # Number of read requests accepted (Count)
system.mem_ctrls.writeReqs                      79690                       # Number of write requests accepted (Count)
system.mem_ctrls.readBursts                     87833                       # Number of controller read bursts, including those serviced by the write queue (Count)
system.mem_ctrls.writeBursts                    79690                       # Number of controller write bursts, including those merged in the write queue (Count)
system.mem_ctrls.servicedByWrQ                   1023                       # Number of controller read bursts serviced by the write queue (Count)
system.mem_ctrls.mergedWrBursts                     0                       # Number of controller write bursts merged with an existing one (Count)
system.mem_ctrls.neitherReadNorWriteReqs            0                       # Number of requests that are neither read nor write (Count)
system.mem_ctrls.avgRdQLen                       1.00                       # Average read queue length when enqueuing ((Count/Tick))
system.mem_ctrls.avgWrQLen                      24.58                       # Average write queue length when enqueuing ((Count/Tick))
system.mem_ctrls.numRdRetry                         0                       # Number of times read queue was full causing retry (Count)
system.mem_ctrls.numWrRetry                         0                       # Number of times write queue was full causing retry (Count)
system.mem_ctrls.readPktSize::0                     0                       # Read request sizes (log2) (Count)
system.mem_ctrls.readPktSize::1                     0                       # Read request sizes (log2) (Count)
system.mem_ctrls.readPktSize::2                     0                       # Read request sizes (log2) (Count)
system.mem_ctrls.readPktSize::3                     0                       # Read request sizes (log2) (Count)
system.mem_ctrls.readPktSize::4                     0                       # Read request sizes (log2) (Count)
system.mem_ctrls.readPktSize::5                     0                       # Read request sizes (log2) (Count)
system.mem_ctrls.readPktSize::6                 87833                       # Read request sizes (log2) (Count)
system.mem_ctrls.writePktSize::0                    0                       # Write request sizes (log2) (Count)
system.mem_ctrls.writePktSize::1                    0                       # Write request sizes (log2) (Count)
system.mem_ctrls.writePktSize::2                    0                       # Write request sizes (log2) (Count)
system.mem_ctrls.writePktSize::3                    0                       # Write request sizes (log2) (Count)
system.mem_ctrls.writePktSize::4                    0                       # Write request sizes (log2) (Count)
system.mem_ctrls.writePktSize::5                    0                       # Write request sizes (log2) (Count)
system.mem_ctrls.writePktSize::6                79690                       # Write request sizes (log2) (Count)
system.mem_ctrls.rdQLenPdf::0                   86473                       # What read queue length does an incoming req see (Count)
system.mem_ctrls.rdQLenPdf::1                     336                       # What read queue length does an incoming req see (Count)
system.mem_ctrls.rdQLenPdf::2                       1                       # What read queue length does an incoming req see (Count)
system.mem_ctrls.rdQLenPdf::3                       0                       # What read queue length does an incoming req see (Count)
system.mem_ctrls.rdQLenPdf::4                       0                       # What read queue length does an incoming req see (Count)
system.mem_ctrls.rdQLenPdf::5                       0                       # What read queue length does an incoming req see (Count)
system.mem_ctrls.rdQLenPdf::6                       0                       # What read queue length does an incoming req see (Count)
system.mem_ctrls.rdQLenPdf::7                       0                       # What read queue length does an incoming req see (Count)
system.mem_ctrls.rdQLenPdf::8                       0                       # What read queue length does an incoming req see (Count)
system.mem_ctrls.rdQLenPdf::9                       0                       # What read queue length does an incoming req see (Count)
system.mem_ctrls.rdQLenPdf::10                      0                       # What read queue length does an incoming req see (Count)
system.mem_ctrls.rdQLenPdf::11                      0                       # What read queue length does an incoming req see (Count)
system.mem_ctrls.rdQLenPdf::12                      0                       # What read queue length does an incoming req see (Count)
system.mem_ctrls.rdQLenPdf::13                      0                       # What read queue length does an incoming req see (Count)
system.mem_ctrls.rdQLenPdf::14                      0                       # What read queue length does an incoming req see (Count)
system.mem_ctrls.rdQLenPdf::15                      0                       # What read queue length does an incoming req see (Count)
system.mem_ctrls.rdQLenPdf::16                      0                       # What read queue length does an incoming req see (Count)
system.mem_ctrls.rdQLenPdf::17                      0                       # What read queue length does an incoming req see (Count)
system.mem_ctrls.rdQLenPdf::18                      0                       # What read queue length does an incoming req see (Count)
system.mem_ctrls.rdQLenPdf::19                      0                       # What read queue length does an incoming req see (Count)
system.mem_ctrls.rdQLenPdf::20                      0                       # What read queue length does an incoming req see (Count)
system.mem_ctrls.rdQLenPdf::21                      0                       # What read queue length does an incoming req see (Count)
system.mem_ctrls.rdQLenPdf::22                      0                       # What read queue length does an incoming req see (Count)
system.mem_ctrls.rdQLenPdf::23                      0                       # What read queue length does an incoming req see (Count)
system.mem_ctrls.rdQLenPdf::24                      0                       # What read queue length does an incoming req see (Count)
system.mem_ctrls.rdQLenPdf::25                      0                       # What read queue length does an incoming req see (Count)
system.mem_ctrls.rdQLenPdf::26                      0                       # What read queue length does an incoming req see (Count)
system.mem_ctrls.rdQLenPdf::27                      0                       # What read queue length does an incoming req see (Count)
system.mem_ctrls.rdQLenPdf::28                      0                       # What read queue length does an incoming req see (Count)
system.mem_ctrls.rdQLenPdf::29                      0                       # What read queue length does an incoming req see (Count)
system.mem_ctrls.rdQLenPdf::30                      0                       # What read queue length does an incoming req see (Count)
system.mem_ctrls.rdQLenPdf::31                      0                       # What read queue length does an incoming req see (Count)
system.mem_ctrls.wrQLenPdf::0                       1                       # What write queue length does an incoming req see (Count)
system.mem_ctrls.wrQLenPdf::1                       1                       # What write queue length does an incoming req see (Count)
system.mem_ctrls.wrQLenPdf::2                       1                       # What write queue length does an incoming req see (Count)
system.mem_ctrls.wrQLenPdf::3                       1                       # What write queue length does an incoming req see (Count)
system.mem_ctrls.wrQLenPdf::4                       1                       # What write queue length does an incoming req see (Count)
system.mem_ctrls.wrQLenPdf::5                       1                       # What write queue length does an incoming req see (Count)
system.mem_ctrls.wrQLenPdf::6                       1                       # What write queue length does an incoming req see (Count)
system.mem_ctrls.wrQLenPdf::7                       1                       # What write queue length does an incoming req see (Count)
system.mem_ctrls.wrQLenPdf::8                       1                       # What write queue length does an incoming req see (Count)
system.mem_ctrls.wrQLenPdf::9                       1                       # What write queue length does an incoming req see (Count)
system.mem_ctrls.wrQLenPdf::10                      1                       # What write queue length does an incoming req see (Count)
system.mem_ctrls.wrQLenPdf::11                      1                       # What write queue length does an incoming req see (Count)
system.mem_ctrls.wrQLenPdf::12                      1                       # What write queue length does an incoming req see (Count)
system.mem_ctrls.wrQLenPdf::13                      1                       # What write queue length does an incoming req see (Count)
system.mem_ctrls.wrQLenPdf::14                      1                       # What write queue length does an incoming req see (Count)
system.mem_ctrls.wrQLenPdf::15                   4182                       # What write queue length does an incoming req see (Count)
system.mem_ctrls.wrQLenPdf::16                   4199                       # What write queue length does an incoming req see (Count)
system.mem_ctrls.wrQLenPdf::17                   4373                       # What write queue length does an incoming req see (Count)
system.mem_ctrls.wrQLenPdf::18                   4458                       # What write queue length does an incoming req see (Count)
system.mem_ctrls.wrQLenPdf::19                   4456                       # What write queue length does an incoming req see (Count)
system.mem_ctrls.wrQLenPdf::20                   4486                       # What write queue length does an incoming req see (Count)
system.mem_ctrls.wrQLenPdf::21                   4476                       # What write queue length does an incoming req see (Count)
system.mem_ctrls.wrQLenPdf::22                   4456                       # What write queue length does an incoming req see (Count)
system.mem_ctrls.wrQLenPdf::23                   4486                       # What write queue length does an incoming req see (Count)
system.mem_ctrls.wrQLenPdf::24                   4468                       # What write queue length does an incoming req see (Count)
system.mem_ctrls.wrQLenPdf::25                   4455                       # What write queue length does an incoming req see (Count)
system.mem_ctrls.wrQLenPdf::26                   4454                       # What write queue length does an incoming req see (Count)
system.mem_ctrls.wrQLenPdf::27                   4455                       # What write queue length does an incoming req see (Count)
system.mem_ctrls.wrQLenPdf::28                   4455                       # What write queue length does an incoming req see (Count)
system.mem_ctrls.wrQLenPdf::29                   4454                       # What write queue length does an incoming req see (Count)
system.mem_ctrls.wrQLenPdf::30                   4454                       # What write queue length does an incoming req see (Count)
system.mem_ctrls.wrQLenPdf::31                   4454                       # What write queue length does an incoming req see (Count)
system.mem_ctrls.wrQLenPdf::32                   4454                       # What write queue length does an incoming req see (Count)
system.mem_ctrls.wrQLenPdf::33                      0                       # What write queue length does an incoming req see (Count)
system.mem_ctrls.wrQLenPdf::34                      0                       # What write queue length does an incoming req see (Count)
system.mem_ctrls.wrQLenPdf::35                      0                       # What write queue length does an incoming req see (Count)
system.mem_ctrls.wrQLenPdf::36                      0                       # What write queue length does an incoming req see (Count)
system.mem_ctrls.wrQLenPdf::37                      0                       # What write queue length does an incoming req see (Count)
system.mem_ctrls.wrQLenPdf::38                      0                       # What write queue length does an incoming req see (Count)
system.mem_ctrls.wrQLenPdf::39                      0                       # What write queue length does an incoming req see (Count)
system.mem_ctrls.wrQLenPdf::40                      0                       # What write queue length does an incoming req see (Count)
system.mem_ctrls.wrQLenPdf::41                      0                       # What write queue length does an incoming req see (Count)
system.mem_ctrls.wrQLenPdf::42                      0                       # What write queue length does an incoming req see (Count)
system.mem_ctrls.wrQLenPdf::43                      0                       # What write queue length does an incoming req see (Count)
system.mem_ctrls.wrQLenPdf::44                      0                       # What write queue length does an incoming req see (Count)
system.mem_ctrls.wrQLenPdf::45                      0                       # What write queue length does an incoming req see (Count)
system.mem_ctrls.wrQLenPdf::46                      0                       # What write queue length does an incoming req see (Count)
system.mem_ctrls.wrQLenPdf::47                      0                       # What write queue length does an incoming req see (Count)
system.mem_ctrls.wrQLenPdf::48                      0                       # What write queue length does an incoming req see (Count)
system.mem_ctrls.wrQLenPdf::49                      0                       # What write queue length does an incoming req see (Count)
system.mem_ctrls.wrQLenPdf::50                      0                       # What write queue length does an incoming req see (Count)
system.mem_ctrls.wrQLenPdf::51                      0                       # What write queue length does an incoming req see (Count)
system.mem_ctrls.wrQLenPdf::52                      0                       # What write queue length does an incoming req see (Count)
system.mem_ctrls.wrQLenPdf::53                      0                       # What write queue length does an incoming req see (Count)
system.mem_ctrls.wrQLenPdf::54                      0                       # What write queue length does an incoming req see (Count)
system.mem_ctrls.wrQLenPdf::55                      0                       # What write queue length does an incoming req see (Count)
system.mem_ctrls.wrQLenPdf::56                      0                       # What write queue length does an incoming req see (Count)
system.mem_ctrls.wrQLenPdf::57                      0                       # What write queue length does an incoming req see (Count)
system.mem_ctrls.wrQLenPdf::58                      0                       # What write queue length does an incoming req see (Count)
system.mem_ctrls.wrQLenPdf::59                      0                       # What write queue length does an incoming req see (Count)
[...]
system.mem_ctrls.dram.perBankWrBursts::15         1002                       # Per bank write bursts (Count)
system.mem_ctrls.dram.totQLat               681922293                       # Total ticks spent queuing (Tick)
system.mem_ctrls.dram.totBusLat             326191376                       # Total ticks spent in databus transfers (Tick)
system.mem_ctrls.dram.totMemAccLat         2146132089                       # Total ticks spent from burst creation until serviced by the DRAM (Tick)
system.mem_ctrls.dram.avgQLat                 7843.78                       # Average queueing delay per DRAM burst ((Tick/Count))
system.mem_ctrls.dram.avgBusLat               3752.00                       # Average bus latency per DRAM burst ((Tick/Count))
system.mem_ctrls.dram.avgMemAccLat           24685.78                       # Average memory access latency per DRAM burst ((Tick/Count))
system.mem_ctrls.dram.readRowHits               70209                       # Number of row buffer hits during reads (Count)
system.mem_ctrls.dram.writeRowHits              67781                       # Number of row buffer hits during writes (Count)
system.mem_ctrls.dram.readRowHitRate            80.76                       # Row buffer hit rate for reads (Ratio)
system.mem_ctrls.dram.writeRowHitRate           84.87                       # Row buffer hit rate for writes (Ratio)
system.mem_ctrls.dram.bytesPerActivate::samples        28807                       # Bytes accessed per row activation (Byte)
system.mem_ctrls.dram.bytesPerActivate::mean   370.463290                       # Bytes accessed per row activation (Byte)
system.mem_ctrls.dram.bytesPerActivate::gmean   243.038008                       # Bytes accessed per row activation (Byte)
system.mem_ctrls.dram.bytesPerActivate::stdev   327.621903                       # Bytes accessed per row activation (Byte)
system.mem_ctrls.dram.bytesPerActivate::0-127         5486     19.04%     19.04% # Bytes accessed per row activation (Byte)
system.mem_ctrls.dram.bytesPerActivate::128-255         8739     30.34%     49.38% # Bytes accessed per row activation (Byte)
system.mem_ctrls.dram.bytesPerActivate::256-383         4341     15.07%     64.45% # Bytes accessed per row activation (Byte)
system.mem_ctrls.dram.bytesPerActivate::384-511         1686      5.85%     70.30% # Bytes accessed per row activation (Byte)
system.mem_ctrls.dram.bytesPerActivate::512-639         1592      5.53%     75.83% # Bytes accessed per row activation (Byte)
system.mem_ctrls.dram.bytesPerActivate::640-767         1560      5.42%     81.24% # Bytes accessed per row activation (Byte)
system.mem_ctrls.dram.bytesPerActivate::768-895         1239      4.30%     85.55% # Bytes accessed per row activation (Byte)
system.mem_ctrls.dram.bytesPerActivate::896-1023         1149      3.99%     89.53% # Bytes accessed per row activation (Byte)
system.mem_ctrls.dram.bytesPerActivate::1024-1151         3015     10.47%    100.00% # Bytes accessed per row activation (Byte)
system.mem_ctrls.dram.bytesPerActivate::total        28807                       # Bytes accessed per row activation (Byte)
system.mem_ctrls.dram.bytesRead               5564032                       # Total bytes read (Byte)
system.mem_ctrls.dram.bytesWritten            5111552                       # Total bytes written (Byte)
system.mem_ctrls.dram.avgRdBW               44.410631                       # Average DRAM read bandwidth in MiBytes/s ((Byte/Second))
system.mem_ctrls.dram.avgWrBW               40.799056                       # Average DRAM write bandwidth in MiBytes/s ((Byte/Second))
system.mem_ctrls.dram.peakBW                 17057.00                       # Theoretical peak bandwidth in MiByte/s ((Byte/Second))
system.mem_ctrls.dram.busUtil                    0.50                       # Data bus utilization in percentage (Ratio)
system.mem_ctrls.dram.busUtilRead                0.26                       # Data bus utilization in percentage for reads (Ratio)
system.mem_ctrls.dram.busUtilWrite               0.24                       # Data bus utilization in percentage for writes (Ratio)
system.mem_ctrls.dram.pageHitRate               82.72                       # Row buffer hit rate, read and write combined (Ratio)
system.mem_ctrls.dram.power_state.pwrStateResidencyTicks::UNDEFINED 125647618413                       # Cumulative time (in ticks) in various power states (Tick)
system.mem_ctrls.dram.rank0.actEnergy    157244068.799984                       # Energy for activate commands per rank (pJ) (Joule)
system.mem_ctrls.dram.rank0.preEnergy    77577657.695998                       # Energy for precharge commands per rank (pJ) (Joule)
system.mem_ctrls.dram.rank0.readEnergy   286330758.335985                       # Energy for read commands per rank (pJ) (Joule)
system.mem_ctrls.dram.rank0.writeEnergy  203630585.088007                       # Energy for write commands per rank (pJ) (Joule)
system.mem_ctrls.dram.rank0.refreshEnergy 10371107894.109564                       # Energy for refresh commands per rank (pJ) (Joule)
system.mem_ctrls.dram.rank0.actBackEnergy 22762447350.715168                       # Energy for active background per rank (pJ) (Joule)
system.mem_ctrls.dram.rank0.preBackEnergy 36487232280.409508                       # Energy for precharge background per rank (pJ) (Joule)
system.mem_ctrls.dram.rank0.actPowerDownEnergy            0                       # Energy for active power-down per rank (pJ) (Joule)
system.mem_ctrls.dram.rank0.prePowerDownEnergy            0                       # Energy for precharge power-down per rank (pJ) (Joule)
system.mem_ctrls.dram.rank0.selfRefreshEnergy            0                       # Energy for self refresh per rank (pJ) (Joule)
system.mem_ctrls.dram.rank0.totalEnergy  70345570595.160110                       # Total energy per rank (pJ) (Joule)
system.mem_ctrls.dram.rank0.averagePower   561.479733                       # Core power per rank (mW) (Watt)
system.mem_ctrls.dram.rank0.totalIdleTime            0                       # Total Idle time Per DRAM Rank (Tick)
system.mem_ctrls.dram.rank0.pwrStateTime::IDLE  81876459437                       # Time in different power states (Tick)
system.mem_ctrls.dram.rank0.pwrStateTime::REF   4183140000                       # Time in different power states (Tick)
system.mem_ctrls.dram.rank0.pwrStateTime::SREF            0                       # Time in different power states (Tick)
system.mem_ctrls.dram.rank0.pwrStateTime::PRE_PDN            0                       # Time in different power states (Tick)
system.mem_ctrls.dram.rank0.pwrStateTime::ACT  39229548026                       # Time in different power states (Tick)
system.mem_ctrls.dram.rank0.pwrStateTime::ACT_PDN            0                       # Time in different power states (Tick)
system.mem_ctrls.dram.rank1.actEnergy    146423991.167984                       # Energy for activate commands per rank (pJ) (Joule)
system.mem_ctrls.dram.rank1.preEnergy    72236978.351999                       # Energy for precharge commands per rank (pJ) (Joule)
system.mem_ctrls.dram.rank1.readEnergy   289309095.935984                       # Energy for read commands per rank (pJ) (Joule)
system.mem_ctrls.dram.rank1.writeEnergy  202714796.928007                       # Energy for write commands per rank (pJ) (Joule)
system.mem_ctrls.dram.rank1.refreshEnergy 10371107894.109564                       # Energy for refresh commands per rank (pJ) (Joule)
system.mem_ctrls.dram.rank1.actBackEnergy 23060677997.275295                       # Energy for active background per rank (pJ) (Joule)
system.mem_ctrls.dram.rank1.preBackEnergy 36236340385.225548                       # Energy for precharge background per rank (pJ) (Joule)
system.mem_ctrls.dram.rank1.actPowerDownEnergy            0                       # Energy for active power-down per rank (pJ) (Joule)
system.mem_ctrls.dram.rank1.prePowerDownEnergy            0                       # Energy for precharge power-down per rank (pJ) (Joule)
system.mem_ctrls.dram.rank1.selfRefreshEnergy            0                       # Energy for self refresh per rank (pJ) (Joule)
system.mem_ctrls.dram.rank1.totalEnergy  70378811139.000214                       # Total energy per rank (pJ) (Joule)
system.mem_ctrls.dram.rank1.averagePower   561.745050                       # Core power per rank (mW) (Watt)
system.mem_ctrls.dram.rank1.totalIdleTime            0                       # Total Idle time Per DRAM Rank (Tick)
system.mem_ctrls.dram.rank1.pwrStateTime::IDLE  81311001581                       # Time in different power states (Tick)
system.mem_ctrls.dram.rank1.pwrStateTime::REF   4183140000                       # Time in different power states (Tick)
system.mem_ctrls.dram.rank1.pwrStateTime::SREF            0                       # Time in different power states (Tick)
system.mem_ctrls.dram.rank1.pwrStateTime::PRE_PDN            0                       # Time in different power states (Tick)
system.mem_ctrls.dram.rank1.pwrStateTime::ACT  39794764899                       # Time in different power states (Tick)
system.mem_ctrls.dram.rank1.pwrStateTime::ACT_PDN            0                       # Time in different power states (Tick)
system.mem_ctrls.power_state.pwrStateResidencyTicks::UNDEFINED 125647618413                       # Cumulative time (in ticks) in various power states (Tick)
system.membus.transDist::ReadResp                6914                       # Transaction distribution (Count)
system.membus.transDist::WritebackDirty         79900                       # Transaction distribution (Count)
system.membus.transDist::CleanEvict              6020                       # Transaction distribution (Count)
system.membus.transDist::ReadExReq              81047                       # Transaction distribution (Count)
system.membus.transDist::ReadExResp             81047                       # Transaction distribution (Count)
system.membus.transDist::ReadSharedReq           6914                       # Transaction distribution (Count)
system.membus.pktCount_system.l2.mem_side_port::system.mem_ctrls.port       261842                       # Packet count per connected requestor and responder (Count)
system.membus.pktCount_system.l2.mem_side_port::total       261842                       # Packet count per connected requestor and responder (Count)
system.membus.pktCount::total                  261842                       # Packet count per connected requestor and responder (Count)
system.membus.pktSize_system.l2.mem_side_port::system.mem_ctrls.port     10743104                       # Cumulative packet size per connected requestor and responder (Byte)
system.membus.pktSize_system.l2.mem_side_port::total     10743104                       # Cumulative packet size per connected requestor and responder (Byte)
system.membus.pktSize::total                 10743104                       # Cumulative packet size per connected requestor and responder (Byte)
system.membus.snoops                                0                       # Total snoops (Count)
system.membus.snoopTraffic                          0                       # Total snoop traffic (Byte)
system.membus.snoopFanout::samples              87961                       # Request fanout histogram (Count)
system.membus.snoopFanout::mean                     0                       # Request fanout histogram (Count)
system.membus.snoopFanout::stdev                    0                       # Request fanout histogram (Count)
system.membus.snoopFanout::underflows               0      0.00%      0.00% # Request fanout histogram (Count)
system.membus.snoopFanout::0                    87961    100.00%    100.00% # Request fanout histogram (Count)
system.membus.snoopFanout::1                        0      0.00%    100.00% # Request fanout histogram (Count)
system.membus.snoopFanout::overflows                0      0.00%    100.00% # Request fanout histogram (Count)
system.membus.snoopFanout::min_value                0                       # Request fanout histogram (Count)
system.membus.snoopFanout::max_value                0                       # Request fanout histogram (Count)
system.membus.snoopFanout::total                87961                       # Request fanout histogram (Count)
system.membus.power_state.pwrStateResidencyTicks::UNDEFINED 125647618413                       # Cumulative time (in ticks) in various power states (Tick)
system.membus.reqLayer2.occupancy           572165952                       # Layer occupancy (ticks) (Tick)
system.membus.reqLayer2.utilization               0.0                       # Layer utilization (Ratio)
system.membus.respLayer1.occupancy          454300928                       # Layer occupancy (ticks) (Tick)
system.membus.respLayer1.utilization              0.0                       # Layer utilization (Ratio)
system.membus.snoop_filter.totRequests         173881                       # Total number of requests made to the snoop filter. (Count)
system.membus.snoop_filter.hitSingleRequests        85921                       # Number of requests hitting in the snoop filter with a single holder of the requested data. (Count)
system.membus.snoop_filter.hitMultiRequests            0                       # Number of requests hitting in the snoop filter with multiple (>1) holders of the requested data. (Count)
system.membus.snoop_filter.totSnoops                0                       # Total number of snoops made to the snoop filter. (Count)
system.membus.snoop_filter.hitSingleSnoops            0                       # Number of snoops hitting in the snoop filter with a single holder of the requested data. (Count)
system.membus.snoop_filter.hitMultiSnoops            0                       # Number of snoops hitting in the snoop filter with multiple (>1) holders of the requested data. (Count)
system.tol2bus.transDist::ReadResp              12214                       # Transaction distribution (Count)
system.tol2bus.transDist::WritebackDirty       498643                       # Transaction distribution (Count)
system.tol2bus.transDist::WritebackClean         3119                       # Transaction distribution (Count)
system.tol2bus.transDist::CleanEvict            11600                       # Transaction distribution (Count)
system.tol2bus.transDist::ReadExReq            413574                       # Transaction distribution (Count)
system.tol2bus.transDist::ReadExResp           413574                       # Transaction distribution (Count)
system.tol2bus.transDist::ReadCleanReq           3119                       # Transaction distribution (Count)
system.tol2bus.transDist::ReadSharedReq          9095                       # Transaction distribution (Count)
system.tol2bus.pktCount_system.cpu.icache.mem_side_port::system.l2.cpu_side_port         9357                       # Packet count per connected requestor and responder (Count)
system.tol2bus.pktCount_system.cpu.dcache.mem_side_port::system.l2.cpu_side_port      1268007                       # Packet count per connected requestor and responder (Count)
system.tol2bus.pktCount::total                1277364                       # Packet count per connected requestor and responder (Count)
system.tol2bus.pktSize_system.cpu.icache.mem_side_port::system.l2.cpu_side_port       399232                       # Cumulative packet size per connected requestor and responder (Byte)
system.tol2bus.pktSize_system.cpu.dcache.mem_side_port::system.l2.cpu_side_port     53850304                       # Cumulative packet size per connected requestor and responder (Byte)
system.tol2bus.pktSize::total                54249536                       # Cumulative packet size per connected requestor and responder (Byte)
system.tol2bus.snoops                           87574                       # Total snoops (Count)
system.tol2bus.snoopTraffic                   5113664                       # Total snoop traffic (Byte)
system.tol2bus.snoopFanout::samples            513362                       # Request fanout histogram (Count)
system.tol2bus.snoopFanout::mean             0.003226                       # Request fanout histogram (Count)
system.tol2bus.snoopFanout::stdev            0.056704                       # Request fanout histogram (Count)
system.tol2bus.snoopFanout::underflows              0      0.00%      0.00% # Request fanout histogram (Count)
system.tol2bus.snoopFanout::0                  511706     99.68%     99.68% # Request fanout histogram (Count)
system.tol2bus.snoopFanout::1                    1656      0.32%    100.00% # Request fanout histogram (Count)
system.tol2bus.snoopFanout::2                       0      0.00%    100.00% # Request fanout histogram (Count)
system.tol2bus.snoopFanout::3                       0      0.00%    100.00% # Request fanout histogram (Count)
system.tol2bus.snoopFanout::4                       0      0.00%    100.00% # Request fanout histogram (Count)
system.tol2bus.snoopFanout::overflows               0      0.00%    100.00% # Request fanout histogram (Count)
system.tol2bus.snoopFanout::min_value               0                       # Request fanout histogram (Count)
system.tol2bus.snoopFanout::max_value               1                       # Request fanout histogram (Count)
system.tol2bus.snoopFanout::total              513362                       # Request fanout histogram (Count)
system.tol2bus.power_state.pwrStateResidencyTicks::UNDEFINED 125647618413                       # Cumulative time (in ticks) in various power states (Tick)
system.tol2bus.reqLayer0.occupancy         1130763766                       # Layer occupancy (ticks) (Tick)
system.tol2bus.reqLayer0.utilization              0.0                       # Layer utilization (Ratio)
system.tol2bus.respLayer0.occupancy           6241119                       # Layer occupancy (ticks) (Tick)
system.tol2bus.respLayer0.utilization             0.0                       # Layer utilization (Ratio)
system.tol2bus.respLayer1.occupancy         845760669                       # Layer occupancy (ticks) (Tick)
system.tol2bus.respLayer1.utilization             0.0                       # Layer utilization (Ratio)
system.tol2bus.snoop_filter.totRequests        851576                       # Total number of requests made to the snoop filter. (Count)
system.tol2bus.snoop_filter.hitSingleRequests       425789                       # Number of requests hitting in the snoop filter with a single holder of the requested data. (Count)
system.tol2bus.snoop_filter.hitMultiRequests            2                       # Number of requests hitting in the snoop filter with multiple (>1) holders of the requested data. (Count)
system.tol2bus.snoop_filter.totSnoops            1653                       # Total number of snoops made to the snoop filter. (Count)
system.tol2bus.snoop_filter.hitSingleSnoops         1653                       # Number of snoops hitting in the snoop filter with a single holder of the requested data. (Count)
system.tol2bus.snoop_filter.hitMultiSnoops            0                       # Number of snoops hitting in the snoop filter with multiple (>1) holders of the requested data. (Count)
system.voltage_domain.voltage                       1                       # Voltage in Volts (Volt)
system.workload.inst.arm                            0                       # number of arm instructions executed (Count)
system.workload.inst.quiesce                        0                       # number of quiesce instructions executed (Count)
system.cpu.idleCycles                         8907355                       # Total number of cycles that the object has spent stopped (Unspecified)
system.cpu.tickCycles                       178927783                       # Number of cycles that the object actually ticked (Unspecified)

---------- End Simulation Statistics   ----------
