
---------- Begin Simulation Statistics ----------
simSeconds                                   0.150261                       # Number of seconds simulated (Second)
simTicks                                 150261127000                       # Number of ticks simulated (Tick)
finalTick                                150602442500                       # Number of ticks from beginning of simulation (restored from checkpoints and never reset) (Tick)
simFreq                                  1000000000000                       # The number of ticks per simulated second ((Tick/Second))
hostSeconds                                     79.85                       # Real time elapsed on the host (Second)
hostTickRate                               1881697669                       # The number of ticks simulated per host second (ticks/s) ((Tick/Second))
hostMemory                                     810292                       # Number of bytes of host memory used (Byte)
simInsts                                     70417850                       # Number of instructions simulated (Count)
simOps                                      126704873                       # Number of ops (including micro ops) simulated (Count)
hostInstRate                                   881830                       # Simulator instruction rate (inst/s) ((Count/Second))
hostOpRate                                    1586702                       # Simulator op (including micro ops) rate (op/s) ((Count/Second))
system.clk_domain.clock                          1000                       # Clock period in ticks (Tick)
system.cpu.numCycles                        300522254                       # Number of cpu cycles simulated (Cycle)
system.cpu.numWorkItemsStarted                      0                       # Number of work items this cpu started (Count)
system.cpu.numWorkItemsCompleted                    0                       # Number of work items this cpu completed (Count)
system.cpu.dcache.demandHits::cpu.data       41596755                       # number of demand (read+write) hits (Count)
system.cpu.dcache.demandHits::total          41596755                       # number of demand (read+write) hits (Count)
system.cpu.dcache.overallHits::cpu.data      41596755                       # number of overall hits (Count)
system.cpu.dcache.overallHits::total         41596755                       # number of overall hits (Count)
system.cpu.dcache.demandMisses::cpu.data       422524                       # number of demand (read+write) misses (Count)
system.cpu.dcache.demandMisses::total          422524                       # number of demand (read+write) misses (Count)
system.cpu.dcache.overallMisses::cpu.data       422524                       # number of overall misses (Count)
system.cpu.dcache.overallMisses::total         422524                       # number of overall misses (Count)
system.cpu.dcache.demandMissLatency::cpu.data  10453676000                       # number of demand (read+write) miss ticks (Tick)
system.cpu.dcache.demandMissLatency::total  10453676000                       # number of demand (read+write) miss ticks (Tick)
system.cpu.dcache.overallMissLatency::cpu.data  10453676000                       # number of overall miss ticks (Tick)
system.cpu.dcache.overallMissLatency::total  10453676000                       # number of overall miss ticks (Tick)
system.cpu.dcache.demandAccesses::cpu.data     42019279                       # number of demand (read+write) accesses (Count)
system.cpu.dcache.demandAccesses::total      42019279                       # number of demand (read+write) accesses (Count)
system.cpu.dcache.overallAccesses::cpu.data     42019279                       # number of overall (read+write) accesses (Count)
system.cpu.dcache.overallAccesses::total     42019279                       # number of overall (read+write) accesses (Count)
system.cpu.dcache.demandMissRate::cpu.data     0.010055                       # miss rate for demand accesses (Ratio)
system.cpu.dcache.demandMissRate::total      0.010055                       # miss rate for demand accesses (Ratio)
system.cpu.dcache.overallMissRate::cpu.data     0.010055                       # miss rate for overall accesses (Ratio)
system.cpu.dcache.overallMissRate::total     0.010055                       # miss rate for overall accesses (Ratio)
system.cpu.dcache.demandAvgMissLatency::cpu.data 24741.022995                       # average overall miss latency in ticks ((Tick/Count))
system.cpu.dcache.demandAvgMissLatency::total 24741.022995                       # average overall miss latency in ticks ((Tick/Count))
system.cpu.dcache.overallAvgMissLatency::cpu.data 24741.022995                       # average overall miss latency ((Tick/Count))
system.cpu.dcache.overallAvgMissLatency::total 24741.022995                       # average overall miss latency ((Tick/Count))
system.cpu.dcache.blockedCycles::no_mshrs            0                       # number of cycles access was blocked (Cycle)
system.cpu.dcache.blockedCycles::no_targets            0                       # number of cycles access was blocked (Cycle)
system.cpu.dcache.blockedCauses::no_mshrs            0                       # number of times access was blocked (Count)
system.cpu.dcache.blockedCauses::no_targets            0                       # number of times access was blocked (Count)
system.cpu.dcache.avgBlocked::no_mshrs            nan                       # average number of cycles each access was blocked ((Cycle/Count))
system.cpu.dcache.avgBlocked::no_targets          nan                       # average number of cycles each access was blocked ((Cycle/Count))
system.cpu.dcache.writebacks::writebacks       418696                       # number of writebacks (Count)
system.cpu.dcache.writebacks::total            418696                       # number of writebacks (Count)
system.cpu.dcache.demandMshrMisses::cpu.data       422524                       # number of demand (read+write) MSHR misses (Count)
system.cpu.dcache.demandMshrMisses::total       422524                       # number of demand (read+write) MSHR misses (Count)
system.cpu.dcache.overallMshrMisses::cpu.data       422524                       # number of overall MSHR misses (Count)
system.cpu.dcache.overallMshrMisses::total       422524                       # number of overall MSHR misses (Count)
system.cpu.dcache.demandMshrMissLatency::cpu.data  10031152000                       # number of demand (read+write) MSHR miss ticks (Tick)
system.cpu.dcache.demandMshrMissLatency::total  10031152000                       # number of demand (read+write) MSHR miss ticks (Tick)
system.cpu.dcache.overallMshrMissLatency::cpu.data  10031152000                       # number of overall MSHR miss ticks (Tick)
system.cpu.dcache.overallMshrMissLatency::total  10031152000                       # number of overall MSHR miss ticks (Tick)
system.cpu.dcache.demandMshrMissRate::cpu.data     0.010055                       # mshr miss ratio for demand accesses (Ratio)
system.cpu.dcache.demandMshrMissRate::total     0.010055                       # mshr miss ratio for demand accesses (Ratio)
system.cpu.dcache.overallMshrMissRate::cpu.data     0.010055                       # mshr miss ratio for overall accesses (Ratio)
system.cpu.dcache.overallMshrMissRate::total     0.010055                       # mshr miss ratio for overall accesses (Ratio)
system.cpu.dcache.demandAvgMshrMissLatency::cpu.data 23741.022995                       # average overall mshr miss latency ((Tick/Count))
system.cpu.dcache.demandAvgMshrMissLatency::total 23741.022995                       # average overall mshr miss latency ((Tick/Count))
system.cpu.dcache.overallAvgMshrMissLatency::cpu.data 23741.022995                       # average overall mshr miss latency ((Tick/Count))
system.cpu.dcache.overallAvgMshrMissLatency::total 23741.022995                       # average overall mshr miss latency ((Tick/Count))
system.cpu.dcache.replacements                 422524                       # number of replacements (Count)
system.cpu.dcache.ReadReq.hits::cpu.data     28354704                       # number of ReadReq hits (Count)
system.cpu.dcache.ReadReq.hits::total        28354704                       # number of ReadReq hits (Count)
system.cpu.dcache.ReadReq.misses::cpu.data         8954                       # number of ReadReq misses (Count)
system.cpu.dcache.ReadReq.misses::total          8954                       # number of ReadReq misses (Count)
system.cpu.dcache.ReadReq.missLatency::cpu.data    525064000                       # number of ReadReq miss ticks (Tick)
system.cpu.dcache.ReadReq.missLatency::total    525064000                       # number of ReadReq miss ticks (Tick)
system.cpu.dcache.ReadReq.accesses::cpu.data     28363658                       # number of ReadReq accesses(hits+misses) (Count)
system.cpu.dcache.ReadReq.accesses::total     28363658                       # number of ReadReq accesses(hits+misses) (Count)
system.cpu.dcache.ReadReq.missRate::cpu.data     0.000316                       # miss rate for ReadReq accesses (Ratio)
system.cpu.dcache.ReadReq.missRate::total     0.000316                       # miss rate for ReadReq accesses (Ratio)
system.cpu.dcache.ReadReq.avgMissLatency::cpu.data 58640.160822                       # average ReadReq miss latency ((Tick/Count))
system.cpu.dcache.ReadReq.avgMissLatency::total 58640.160822                       # average ReadReq miss latency ((Tick/Count))
system.cpu.dcache.ReadReq.mshrMisses::cpu.data         8954                       # number of ReadReq MSHR misses (Count)
system.cpu.dcache.ReadReq.mshrMisses::total         8954                       # number of ReadReq MSHR misses (Count)
system.cpu.dcache.ReadReq.mshrMissLatency::cpu.data    516110000                       # number of ReadReq MSHR miss ticks (Tick)
system.cpu.dcache.ReadReq.mshrMissLatency::total    516110000                       # number of ReadReq MSHR miss ticks (Tick)
system.cpu.dcache.ReadReq.mshrMissRate::cpu.data     0.000316                       # mshr miss rate for ReadReq accesses (Ratio)
system.cpu.dcache.ReadReq.mshrMissRate::total     0.000316                       # mshr miss rate for ReadReq accesses (Ratio)
system.cpu.dcache.ReadReq.avgMshrMissLatency::cpu.data 57640.160822                       # average ReadReq mshr miss latency ((Tick/Count))
system.cpu.dcache.ReadReq.avgMshrMissLatency::total 57640.160822                       # average ReadReq mshr miss latency ((Tick/Count))
system.cpu.dcache.WriteReq.hits::cpu.data     13242051                       # number of WriteReq hits (Count)
system.cpu.dcache.WriteReq.hits::total       13242051                       # number of WriteReq hits (Count)
system.cpu.dcache.WriteReq.misses::cpu.data       413570                       # number of WriteReq misses (Count)
system.cpu.dcache.WriteReq.misses::total       413570                       # number of WriteReq misses (Count)
system.cpu.dcache.WriteReq.missLatency::cpu.data   9928612000                       # number of WriteReq miss ticks (Tick)
system.cpu.dcache.WriteReq.missLatency::total   9928612000                       # number of WriteReq miss ticks (Tick)
system.cpu.dcache.WriteReq.accesses::cpu.data     13655621                       # number of WriteReq accesses(hits+misses) (Count)
system.cpu.dcache.WriteReq.accesses::total     13655621                       # number of WriteReq accesses(hits+misses) (Count)
system.cpu.dcache.WriteReq.missRate::cpu.data     0.030286                       # miss rate for WriteReq accesses (Ratio)
system.cpu.dcache.WriteReq.missRate::total     0.030286                       # miss rate for WriteReq accesses (Ratio)
system.cpu.dcache.WriteReq.avgMissLatency::cpu.data 24007.089489                       # average WriteReq miss latency ((Tick/Count))
system.cpu.dcache.WriteReq.avgMissLatency::total 24007.089489                       # average WriteReq miss latency ((Tick/Count))
system.cpu.dcache.WriteReq.mshrMisses::cpu.data       413570                       # number of WriteReq MSHR misses (Count)
system.cpu.dcache.WriteReq.mshrMisses::total       413570                       # number of WriteReq MSHR misses (Count)
system.cpu.dcache.WriteReq.mshrMissLatency::cpu.data   9515042000                       # number of WriteReq MSHR miss ticks (Tick)
system.cpu.dcache.WriteReq.mshrMissLatency::total   9515042000                       # number of WriteReq MSHR miss ticks (Tick)
system.cpu.dcache.WriteReq.mshrMissRate::cpu.data     0.030286                       # mshr miss rate for WriteReq accesses (Ratio)
system.cpu.dcache.WriteReq.mshrMissRate::total     0.030286                       # mshr miss rate for WriteReq accesses (Ratio)
system.cpu.dcache.WriteReq.avgMshrMissLatency::cpu.data 23007.089489                       # average WriteReq mshr miss latency ((Tick/Count))
system.cpu.dcache.WriteReq.avgMshrMissLatency::total 23007.089489                       # average WriteReq mshr miss latency ((Tick/Count))
system.cpu.dcache.power_state.pwrStateResidencyTicks::UNDEFINED 150602442500                       # Cumulative time (in ticks) in various power states (Tick)
system.cpu.dcache.tags.tagsInUse                  256                       # Average ticks per tags in use ((Tick/Count))
system.cpu.dcache.tags.totalRefs              8833235                       # Total number of references to valid blocks. (Count)
system.cpu.dcache.tags.sampledRefs             422524                       # Sample count of references to valid blocks. (Count)
system.cpu.dcache.tags.avgRefs              20.905878                       # Average number of references to valid blocks. ((Count/Count))
system.cpu.dcache.tags.warmupTick            76231500                       # The tick when the warmup percentage was hit. (Tick)
system.cpu.dcache.tags.occupancies::cpu.data          256                       # Average occupied blocks per tick, per requestor ((Count/Tick))
system.cpu.dcache.tags.avgOccs::cpu.data            1                       # Average percentage of cache occupancy ((Ratio/Tick))
system.cpu.dcache.tags.avgOccs::total               1                       # Average percentage of cache occupancy ((Ratio/Tick))
system.cpu.dcache.tags.occupanciesTaskId::1024          256                       # Occupied blocks per task id (Count)
system.cpu.dcache.tags.ageTaskId_1024::0           45                       # Occupied blocks per task id, per block age (Count)
system.cpu.dcache.tags.ageTaskId_1024::1          121                       # Occupied blocks per task id, per block age (Count)
system.cpu.dcache.tags.ageTaskId_1024::2           89                       # Occupied blocks per task id, per block age (Count)
system.cpu.dcache.tags.ageTaskId_1024::4            1                       # Occupied blocks per task id, per block age (Count)
system.cpu.dcache.tags.ratioOccsTaskId::1024            1                       # Ratio of occupied blocks and all blocks, per task id (Ratio)
system.cpu.dcache.tags.tagAccesses          336576756                       # Number of tag accesses (Count)
system.cpu.dcache.tags.dataAccesses         336576756                       # Number of data accesses (Count)
system.cpu.dcache.tags.power_state.pwrStateResidencyTicks::UNDEFINED 150602442500                       # Cumulative time (in ticks) in various power states (Tick)
system.cpu.dtb_walker_cache.blockedCycles::no_mshrs            0                       # number of cycles access was blocked (Cycle)
system.cpu.dtb_walker_cache.blockedCycles::no_targets            0                       # number of cycles access was blocked (Cycle)
system.cpu.dtb_walker_cache.blockedCauses::no_mshrs            0                       # number of times access was blocked (Count)
system.cpu.dtb_walker_cache.blockedCauses::no_targets            0                       # number of times access was blocked (Count)
system.cpu.dtb_walker_cache.avgBlocked::no_mshrs          nan                       # average number of cycles each access was blocked ((Cycle/Count))
system.cpu.dtb_walker_cache.avgBlocked::no_targets          nan                       # average number of cycles each access was blocked ((Cycle/Count))
system.cpu.dtb_walker_cache.replacements            0                       # number of replacements (Count)
system.cpu.dtb_walker_cache.power_state.pwrStateResidencyTicks::UNDEFINED 150602442500                       # Cumulative time (in ticks) in various power states (Tick)
system.cpu.dtb_walker_cache.tags.tagsInUse            0                       # Average ticks per tags in use ((Tick/Count))
system.cpu.dtb_walker_cache.tags.totalRefs            0                       # Total number of references to valid blocks. (Count)
system.cpu.dtb_walker_cache.tags.sampledRefs            0                       # Sample count of references to valid blocks. (Count)
system.cpu.dtb_walker_cache.tags.avgRefs          nan                       # Average number of references to valid blocks. ((Count/Count))
system.cpu.dtb_walker_cache.tags.warmupTick            0                       # The tick when the warmup percentage was hit. (Tick)
system.cpu.dtb_walker_cache.tags.tagAccesses            0                       # Number of tag accesses (Count)
system.cpu.dtb_walker_cache.tags.dataAccesses            0                       # Number of data accesses (Count)
system.cpu.dtb_walker_cache.tags.power_state.pwrStateResidencyTicks::UNDEFINED 150602442500                       # Cumulative time (in ticks) in various power states (Tick)
system.cpu.exec_context.thread_0.numInsts     70311388                       # Number of instructions committed (Count)
system.cpu.exec_context.thread_0.numOps     126510010                       # Number of ops (including micro ops) committed (Count)
system.cpu.exec_context.thread_0.numIntAluAccesses    126499280                       # Number of integer alu accesses (Count)
system.cpu.exec_context.thread_0.numFpAluAccesses        13976                       # Number of float alu accesses (Count)
system.cpu.exec_context.thread_0.numVecAluAccesses            0                       # Number of vector alu accesses (Count)
system.cpu.exec_context.thread_0.numCallsReturns        28302                       # Number of times a function call or return occured (Count)
system.cpu.exec_context.thread_0.numCondCtrlInsts      7320561                       # Number of instructions that are conditional controls (Count)
system.cpu.exec_context.thread_0.numIntInsts    126499280                       # Number of integer instructions (Count)
system.cpu.exec_context.thread_0.numFpInsts        13976                       # Number of float instructions (Count)
system.cpu.exec_context.thread_0.numVecInsts            0                       # Number of vector instructions (Count)
system.cpu.exec_context.thread_0.numIntRegReads    147040968                       # Number of times the integer registers were read (Count)
system.cpu.exec_context.thread_0.numIntRegWrites     98116081                       # Number of times the integer registers were written (Count)
system.cpu.exec_context.thread_0.numFpRegReads        24096                       # Number of times the floating registers were read (Count)
system.cpu.exec_context.thread_0.numFpRegWrites        11080                       # Number of times the floating registers were written (Count)
system.cpu.exec_context.thread_0.numVecRegReads            0                       # Number of times the vector registers were read (Count)
system.cpu.exec_context.thread_0.numVecRegWrites            0                       # Number of times the vector registers were written (Count)
system.cpu.exec_context.thread_0.numVecPredRegReads            0                       # Number of times the predicate registers were read (Count)
system.cpu.exec_context.thread_0.numVecPredRegWrites            0                       # Number of times the predicate registers were written (Count)
system.cpu.exec_context.thread_0.numCCRegReads     43706139                       # Number of times the CC registers were read (Count)
system.cpu.exec_context.thread_0.numCCRegWrites     55559626                       # Number of times the CC registers were written (Count)
system.cpu.exec_context.thread_0.numMiscRegReads     56837417                       # Number of times the Misc registers were read (Count)
system.cpu.exec_context.thread_0.numMiscRegWrites           18                       # Number of times the Misc registers were written (Count)
system.cpu.exec_context.thread_0.numMemRefs     42019281                       # Number of memory refs (Count)
system.cpu.exec_context.thread_0.numLoadInsts     28363659                       # Number of load instructions (Count)
system.cpu.exec_context.thread_0.numStoreInsts     13655622                       # Number of store instructions (Count)
system.cpu.exec_context.thread_0.numIdleCycles            0                       # Number of idle cycles (Cycle)
system.cpu.exec_context.thread_0.numBusyCycles    300522254                       # Number of busy cycles (Cycle)
system.cpu.exec_context.thread_0.notIdleFraction            1                       # Percentage of non-idle cycles (Ratio)
system.cpu.exec_context.thread_0.idleFraction            0                       # Percentage of idle cycles (Ratio)
system.cpu.exec_context.thread_0.numBranches      7410589                       # Number of branches fetched (Count)
system.cpu.exec_context.thread_0.statExecutedInstType::No_OpClass          917      0.00%      0.00% # Class of executed instruction. (Count)
system.cpu.exec_context.thread_0.statExecutedInstType::IntAlu     84477597     66.78%     66.78% # Class of executed instruction. (Count)
system.cpu.exec_context.thread_0.statExecutedInstType::IntMult          400      0.00%     66.78% # Class of executed instruction. (Count)
system.cpu.exec_context.thread_0.statExecutedInstType::IntDiv         1471      0.00%     66.78% # Class of executed instruction. (Count)
system.cpu.exec_context.thread_0.statExecutedInstType::FloatAdd          416      0.00%     66.78% # Class of executed instruction. (Count)
system.cpu.exec_context.thread_0.statExecutedInstType::FloatCmp            0      0.00%     66.78% # Class of executed instruction. (Count)
system.cpu.exec_context.thread_0.statExecutedInstType::FloatCvt           32      0.00%     66.78% # Class of executed instruction. (Count)
system.cpu.exec_context.thread_0.statExecutedInstType::FloatMult            0      0.00%     66.78% # Class of executed instruction. (Count)
system.cpu.exec_context.thread_0.statExecutedInstType::FloatMultAcc            0      0.00%     66.78% # Class of executed instruction. (Count)
system.cpu.exec_context.thread_0.statExecutedInstType::FloatDiv            0      0.00%     66.78% # Class of executed instruction. (Count)
system.cpu.exec_context.thread_0.statExecutedInstType::FloatMisc            0      0.00%     66.78% # Class of executed instruction. (Count)
system.cpu.exec_context.thread_0.statExecutedInstType::FloatSqrt            0      0.00%     66.78% # Class of executed instruction. (Count)
system.cpu.exec_context.thread_0.statExecutedInstType::SimdAdd            0      0.00%     66.78% # Class of executed instruction. (Count)
system.cpu.exec_context.thread_0.statExecutedInstType::SimdAddAcc            0      0.00%     66.78% # Class of executed instruction. (Count)
system.cpu.exec_context.thread_0.statExecutedInstType::SimdAlu         1800      0.00%     66.78% # Class of executed instruction. (Count)
system.cpu.exec_context.thread_0.statExecutedInstType::SimdCmp            0      0.00%     66.78% # Class of executed instruction. (Count)
system.cpu.exec_context.thread_0.statExecutedInstType::SimdCvt         2800      0.00%     66.78% # Class of executed instruction. (Count)
system.cpu.exec_context.thread_0.statExecutedInstType::SimdMisc         5600      0.00%     66.79% # Class of executed instruction. (Count)
system.cpu.exec_context.thread_0.statExecutedInstType::SimdMult            0      0.00%     66.79% # Class of executed instruction. (Count)
system.cpu.exec_context.thread_0.statExecutedInstType::SimdMultAcc            0      0.00%     66.79% # Class of executed instruction. (Count)
system.cpu.exec_context.thread_0.statExecutedInstType::SimdShift            0      0.00%     66.79% # Class of executed instruction. (Count)
system.cpu.exec_context.thread_0.statExecutedInstType::SimdShiftAcc            0      0.00%     66.79% # Class of executed instruction. (Count)
system.cpu.exec_context.thread_0.statExecutedInstType::SimdDiv            0      0.00%     66.79% # Class of executed instruction. (Count)
system.cpu.exec_context.thread_0.statExecutedInstType::SimdSqrt            0      0.00%     66.79% # Class of executed instruction. (Count)
system.cpu.exec_context.thread_0.statExecutedInstType::SimdFloatAdd            0      0.00%     66.79% # Class of executed instruction. (Count)
system.cpu.exec_context.thread_0.statExecutedInstType::SimdFloatAlu            0      0.00%     66.79% # Class of executed instruction. (Count)
system.cpu.exec_context.thread_0.statExecutedInstType::SimdFloatCmp            0      0.00%     66.79% # Class of executed instruction. (Count)
system.cpu.exec_context.thread_0.statExecutedInstType::SimdFloatCvt            0      0.00%     66.79% # Class of executed instruction. (Count)
system.cpu.exec_context.thread_0.statExecutedInstType::SimdFloatDiv            0      0.00%     66.79% # Class of executed instruction. (Count)
system.cpu.exec_context.thread_0.statExecutedInstType::SimdFloatMisc            0      0.00%     66.79% # Class of executed instruction. (Count)
system.cpu.exec_context.thread_0.statExecutedInstType::SimdFloatMult            0      0.00%     66.79% # Class of executed instruction. (Count)
system.cpu.exec_context.thread_0.statExecutedInstType::SimdFloatMultAcc            0      0.00%     66.79% # Class of executed instruction. (Count)
system.cpu.exec_context.thread_0.statExecutedInstType::SimdFloatSqrt            0      0.00%     66.79% # Class of executed instruction. (Count)
system.cpu.exec_context.thread_0.statExecutedInstType::SimdReduceAdd            0      0.00%     66.79% # Class of executed instruction. (Count)
system.cpu.exec_context.thread_0.statExecutedInstType::SimdReduceAlu            0      0.00%     66.79% # Class of executed instruction. (Count)
system.cpu.exec_context.thread_0.statExecutedInstType::SimdReduceCmp            0      0.00%     66.79% # Class of executed instruction. (Count)
system.cpu.exec_context.thread_0.statExecutedInstType::SimdFloatReduceAdd            0      0.00%     66.79% # Class of executed instruction. (Count)
system.cpu.exec_context.thread_0.statExecutedInstType::SimdFloatReduceCmp            0      0.00%     66.79% # Class of executed instruction. (Count)
system.cpu.exec_context.thread_0.statExecutedInstType::SimdAes            0      0.00%     66.79% # Class of executed instruction. (Count)
system.cpu.exec_context.thread_0.statExecutedInstType::SimdAesMix            0      0.00%     66.79% # Class of executed instruction. (Count)
system.cpu.exec_context.thread_0.statExecutedInstType::SimdSha1Hash            0      0.00%     66.79% # Class of executed instruction. (Count)
system.cpu.exec_context.thread_0.statExecutedInstType::SimdSha1Hash2            0      0.00%     66.79% # Class of executed instruction. (Count)
system.cpu.exec_context.thread_0.statExecutedInstType::SimdSha256Hash            0      0.00%     66.79% # Class of executed instruction. (Count)
system.cpu.exec_context.thread_0.statExecutedInstType::SimdSha256Hash2            0      0.00%     66.79% # Class of executed instruction. (Count)
system.cpu.exec_context.thread_0.statExecutedInstType::SimdShaSigma2            0      0.00%     66.79% # Class of executed instruction. (Count)
system.cpu.exec_context.thread_0.statExecutedInstType::SimdShaSigma3            0      0.00%     66.79% # Class of executed instruction. (Count)
system.cpu.exec_context.thread_0.statExecutedInstType::SimdPredAlu            0      0.00%     66.79% # Class of executed instruction. (Count)
system.cpu.exec_context.thread_0.statExecutedInstType::MemRead     28361995     22.42%     89.20% # Class of executed instruction. (Count)
system.cpu.exec_context.thread_0.statExecutedInstType::MemWrite     13655558     10.79%    100.00% # Class of executed instruction. (Count)
system.cpu.exec_context.thread_0.statExecutedInstType::FloatMemRead         1664      0.00%    100.00% # Class of executed instruction. (Count)
system.cpu.exec_context.thread_0.statExecutedInstType::FloatMemWrite           64      0.00%    100.00% # Class of executed instruction. (Count)
system.cpu.exec_context.thread_0.statExecutedInstType::IprAccess            0      0.00%    100.00% # Class of executed instruction. (Count)
system.cpu.exec_context.thread_0.statExecutedInstType::InstPrefetch            0      0.00%    100.00% # Class of executed instruction. (Count)
system.cpu.exec_context.thread_0.statExecutedInstType::total    126510314                       # Class of executed instruction. (Count)
system.cpu.icache.demandHits::cpu.inst       98198095                       # number of demand (read+write) hits (Count)
system.cpu.icache.demandHits::total          98198095                       # number of demand (read+write) hits (Count)
system.cpu.icache.overallHits::cpu.inst      98198095                       # number of overall hits (Count)
system.cpu.icache.overallHits::total         98198095                       # number of overall hits (Count)
system.cpu.icache.demandMisses::cpu.inst          159                       # number of demand (read+write) misses (Count)
system.cpu.icache.demandMisses::total             159                       # number of demand (read+write) misses (Count)
system.cpu.icache.overallMisses::cpu.inst          159                       # number of overall misses (Count)
system.cpu.icache.overallMisses::total            159                       # number of overall misses (Count)
system.cpu.icache.demandMissLatency::cpu.inst     12601000                       # number of demand (read+write) miss ticks (Tick)
system.cpu.icache.demandMissLatency::total     12601000                       # number of demand (read+write) miss ticks (Tick)
system.cpu.icache.overallMissLatency::cpu.inst     12601000                       # number of overall miss ticks (Tick)
system.cpu.icache.overallMissLatency::total     12601000                       # number of overall miss ticks (Tick)
system.cpu.icache.demandAccesses::cpu.inst     98198254                       # number of demand (read+write) accesses (Count)
system.cpu.icache.demandAccesses::total      98198254                       # number of demand (read+write) accesses (Count)
system.cpu.icache.overallAccesses::cpu.inst     98198254                       # number of overall (read+write) accesses (Count)
system.cpu.icache.overallAccesses::total     98198254                       # number of overall (read+write) accesses (Count)
system.cpu.icache.demandMissRate::cpu.inst     0.000002                       # miss rate for demand accesses (Ratio)
system.cpu.icache.demandMissRate::total      0.000002                       # miss rate for demand accesses (Ratio)
system.cpu.icache.overallMissRate::cpu.inst     0.000002                       # miss rate for overall accesses (Ratio)
system.cpu.icache.overallMissRate::total     0.000002                       # miss rate for overall accesses (Ratio)
system.cpu.icache.demandAvgMissLatency::cpu.inst 79251.572327                       # average overall miss latency in ticks ((Tick/Count))
system.cpu.icache.demandAvgMissLatency::total 79251.572327                       # average overall miss latency in ticks ((Tick/Count))
system.cpu.icache.overallAvgMissLatency::cpu.inst 79251.572327                       # average overall miss latency ((Tick/Count))
system.cpu.icache.overallAvgMissLatency::total 79251.572327                       # average overall miss latency ((Tick/Count))
system.cpu.icache.blockedCycles::no_mshrs            0                       # number of cycles access was blocked (Cycle)
system.cpu.icache.blockedCycles::no_targets            0                       # number of cycles access was blocked (Cycle)
system.cpu.icache.blockedCauses::no_mshrs            0                       # number of times access was blocked (Count)
system.cpu.icache.blockedCauses::no_targets            0                       # number of times access was blocked (Count)
system.cpu.icache.avgBlocked::no_mshrs            nan                       # average number of cycles each access was blocked ((Cycle/Count))
system.cpu.icache.avgBlocked::no_targets          nan                       # average number of cycles each access was blocked ((Cycle/Count))
system.cpu.icache.writebacks::writebacks          159                       # number of writebacks (Count)
system.cpu.icache.writebacks::total               159                       # number of writebacks (Count)
system.cpu.icache.demandMshrMisses::cpu.inst          159                       # number of demand (read+write) MSHR misses (Count)
system.cpu.icache.demandMshrMisses::total          159                       # number of demand (read+write) MSHR misses (Count)
system.cpu.icache.overallMshrMisses::cpu.inst          159                       # number of overall MSHR misses (Count)
system.cpu.icache.overallMshrMisses::total          159                       # number of overall MSHR misses (Count)
system.cpu.icache.demandMshrMissLatency::cpu.inst     12442000                       # number of demand (read+write) MSHR miss ticks (Tick)
system.cpu.icache.demandMshrMissLatency::total     12442000                       # number of demand (read+write) MSHR miss ticks (Tick)
system.cpu.icache.overallMshrMissLatency::cpu.inst     12442000                       # number of overall MSHR miss ticks (Tick)
system.cpu.icache.overallMshrMissLatency::total     12442000                       # number of overall MSHR miss ticks (Tick)
system.cpu.icache.demandMshrMissRate::cpu.inst     0.000002                       # mshr miss ratio for demand accesses (Ratio)
system.cpu.icache.demandMshrMissRate::total     0.000002                       # mshr miss ratio for demand accesses (Ratio)
system.cpu.icache.overallMshrMissRate::cpu.inst     0.000002                       # mshr miss ratio for overall accesses (Ratio)
system.cpu.icache.overallMshrMissRate::total     0.000002                       # mshr miss ratio for overall accesses (Ratio)
system.cpu.icache.demandAvgMshrMissLatency::cpu.inst 78251.572327                       # average overall mshr miss latency ((Tick/Count))
system.cpu.icache.demandAvgMshrMissLatency::total 78251.572327                       # average overall mshr miss latency ((Tick/Count))
system.cpu.icache.overallAvgMshrMissLatency::cpu.inst 78251.572327                       # average overall mshr miss latency ((Tick/Count))
system.cpu.icache.overallAvgMshrMissLatency::total 78251.572327                       # average overall mshr miss latency ((Tick/Count))
system.cpu.icache.replacements                    159                       # number of replacements (Count)
system.cpu.icache.ReadReq.hits::cpu.inst     98198095                       # number of ReadReq hits (Count)
system.cpu.icache.ReadReq.hits::total        98198095                       # number of ReadReq hits (Count)
system.cpu.icache.ReadReq.misses::cpu.inst          159                       # number of ReadReq misses (Count)
system.cpu.icache.ReadReq.misses::total           159                       # number of ReadReq misses (Count)
system.cpu.icache.ReadReq.missLatency::cpu.inst     12601000                       # number of ReadReq miss ticks (Tick)
system.cpu.icache.ReadReq.missLatency::total     12601000                       # number of ReadReq miss ticks (Tick)
system.cpu.icache.ReadReq.accesses::cpu.inst     98198254                       # number of ReadReq accesses(hits+misses) (Count)
system.cpu.icache.ReadReq.accesses::total     98198254                       # number of ReadReq accesses(hits+misses) (Count)
system.cpu.icache.ReadReq.missRate::cpu.inst     0.000002                       # miss rate for ReadReq accesses (Ratio)
system.cpu.icache.ReadReq.missRate::total     0.000002                       # miss rate for ReadReq accesses (Ratio)
system.cpu.icache.ReadReq.avgMissLatency::cpu.inst 79251.572327                       # average ReadReq miss latency ((Tick/Count))
system.cpu.icache.ReadReq.avgMissLatency::total 79251.572327                       # average ReadReq miss latency ((Tick/Count))
system.cpu.icache.ReadReq.mshrMisses::cpu.inst          159                       # number of ReadReq MSHR misses (Count)
system.cpu.icache.ReadReq.mshrMisses::total          159                       # number of ReadReq MSHR misses (Count)
system.cpu.icache.ReadReq.mshrMissLatency::cpu.inst     12442000                       # number of ReadReq MSHR miss ticks (Tick)
system.cpu.icache.ReadReq.mshrMissLatency::total     12442000                       # number of ReadReq MSHR miss ticks (Tick)
system.cpu.icache.ReadReq.mshrMissRate::cpu.inst     0.000002                       # mshr miss rate for ReadReq accesses (Ratio)
system.cpu.icache.ReadReq.mshrMissRate::total     0.000002                       # mshr miss rate for ReadReq accesses (Ratio)
system.cpu.icache.ReadReq.avgMshrMissLatency::cpu.inst 78251.572327                       # average ReadReq mshr miss latency ((Tick/Count))
system.cpu.icache.ReadReq.avgMshrMissLatency::total 78251.572327                       # average ReadReq mshr miss latency ((Tick/Count))
system.cpu.icache.power_state.pwrStateResidencyTicks::UNDEFINED 150602442500                       # Cumulative time (in ticks) in various power states (Tick)
system.cpu.icache.tags.tagsInUse                  256                       # Average ticks per tags in use ((Tick/Count))
system.cpu.icache.tags.totalRefs                21165                       # Total number of references to valid blocks. (Count)
system.cpu.icache.tags.sampledRefs                159                       # Sample count of references to valid blocks. (Count)
system.cpu.icache.tags.avgRefs             133.113208                       # Average number of references to valid blocks. ((Count/Count))
system.cpu.icache.tags.warmupTick            46636500                       # The tick when the warmup percentage was hit. (Tick)
system.cpu.icache.tags.occupancies::cpu.inst          256                       # Average occupied blocks per tick, per requestor ((Count/Tick))
system.cpu.icache.tags.avgOccs::cpu.inst            1                       # Average percentage of cache occupancy ((Ratio/Tick))
system.cpu.icache.tags.avgOccs::total               1                       # Average percentage of cache occupancy ((Ratio/Tick))
system.cpu.icache.tags.occupanciesTaskId::1024          256                       # Occupied blocks per task id (Count)
system.cpu.icache.tags.ageTaskId_1024::0            1                       # Occupied blocks per task id, per block age (Count)
system.cpu.icache.tags.ageTaskId_1024::4          255                       # Occupied blocks per task id, per block age (Count)
system.cpu.icache.tags.ratioOccsTaskId::1024            1                       # Ratio of occupied blocks and all blocks, per task id (Ratio)
system.cpu.icache.tags.tagAccesses          785586191                       # Number of tag accesses (Count)
system.cpu.icache.tags.dataAccesses         785586191                       # Number of data accesses (Count)
system.cpu.icache.tags.power_state.pwrStateResidencyTicks::UNDEFINED 150602442500                       # Cumulative time (in ticks) in various power states (Tick)
system.cpu.interrupts.clk_domain.clock           8000                       # Clock period in ticks (Tick)
system.cpu.itb_walker_cache.blockedCycles::no_mshrs            0                       # number of cycles access was blocked (Cycle)
system.cpu.itb_walker_cache.blockedCycles::no_targets            0                       # number of cycles access was blocked (Cycle)
system.cpu.itb_walker_cache.blockedCauses::no_mshrs            0                       # number of times access was blocked (Count)
system.cpu.itb_walker_cache.blockedCauses::no_targets            0                       # number of times access was blocked (Count)
system.cpu.itb_walker_cache.avgBlocked::no_mshrs          nan                       # average number of cycles each access was blocked ((Cycle/Count))
system.cpu.itb_walker_cache.avgBlocked::no_targets          nan                       # average number of cycles each access was blocked ((Cycle/Count))
system.cpu.itb_walker_cache.replacements            0                       # number of replacements (Count)
system.cpu.itb_walker_cache.power_state.pwrStateResidencyTicks::UNDEFINED 150602442500                       # Cumulative time (in ticks) in various power states (Tick)
system.cpu.itb_walker_cache.tags.tagsInUse            0                       # Average ticks per tags in use ((Tick/Count))
system.cpu.itb_walker_cache.tags.totalRefs            0                       # Total number of references to valid blocks. (Count)
system.cpu.itb_walker_cache.tags.sampledRefs            0                       # Sample count of references to valid blocks. (Count)
system.cpu.itb_walker_cache.tags.avgRefs          nan                       # Average number of references to valid blocks. ((Count/Count))
system.cpu.itb_walker_cache.tags.warmupTick            0                       # The tick when the warmup percentage was hit. (Tick)
system.cpu.itb_walker_cache.tags.tagAccesses            0                       # Number of tag accesses (Count)
system.cpu.itb_walker_cache.tags.dataAccesses            0                       # Number of data accesses (Count)
system.cpu.itb_walker_cache.tags.power_state.pwrStateResidencyTicks::UNDEFINED 150602442500                       # Cumulative time (in ticks) in various power states (Tick)
system.cpu.mmu.dtb.rdAccesses                28363659                       # TLB accesses on read requests (Count)
system.cpu.mmu.dtb.wrAccesses                13655622                       # TLB accesses on write requests (Count)
system.cpu.mmu.dtb.rdMisses                      1114                       # TLB misses on read requests (Count)
system.cpu.mmu.dtb.wrMisses                      6806                       # TLB misses on write requests (Count)
system.cpu.mmu.dtb.walker.power_state.pwrStateResidencyTicks::UNDEFINED 150602442500                       # Cumulative time (in ticks) in various power states (Tick)
system.cpu.mmu.itb.rdAccesses                       0                       # TLB accesses on read requests (Count)
system.cpu.mmu.itb.wrAccesses                98198269                       # TLB accesses on write requests (Count)
system.cpu.mmu.itb.rdMisses                         0                       # TLB misses on read requests (Count)
system.cpu.mmu.itb.wrMisses                        33                       # TLB misses on write requests (Count)
system.cpu.mmu.itb.walker.power_state.pwrStateResidencyTicks::UNDEFINED 150602442500                       # Cumulative time (in ticks) in various power states (Tick)
system.cpu.power_state.pwrStateResidencyTicks::ON 150602442500                       # Cumulative time (in ticks) in various power states (Tick)
system.cpu.thread_0.numInsts                        0                       # Number of Instructions committed (Count)
system.cpu.thread_0.numOps                          0                       # Number of Ops committed (Count)
system.cpu.thread_0.numMemRefs                      0                       # Number of Memory References (Count)
system.cpu.workload.numSyscalls                   302                       # Number of system calls (Count)
system.cpu_clk_domain.clock                       500                       # Clock period in ticks (Tick)
system.cpu_voltage_domain.voltage                   1                       # Voltage in Volts (Volt)
system.l2.demandHits::cpu.inst                      1                       # number of demand (read+write) hits (Count)
system.l2.demandHits::cpu.data                 343740                       # number of demand (read+write) hits (Count)
system.l2.demandHits::total                    343741                       # number of demand (read+write) hits (Count)
system.l2.overallHits::cpu.inst                     1                       # number of overall hits (Count)
system.l2.overallHits::cpu.data                343740                       # number of overall hits (Count)
system.l2.overallHits::total                   343741                       # number of overall hits (Count)
system.l2.demandMisses::cpu.inst                  158                       # number of demand (read+write) misses (Count)
system.l2.demandMisses::cpu.data                78784                       # number of demand (read+write) misses (Count)
system.l2.demandMisses::total                   78942                       # number of demand (read+write) misses (Count)
system.l2.overallMisses::cpu.inst                 158                       # number of overall misses (Count)
system.l2.overallMisses::cpu.data               78784                       # number of overall misses (Count)
system.l2.overallMisses::total                  78942                       # number of overall misses (Count)
system.l2.demandMissLatency::cpu.inst        12188500                       # number of demand (read+write) miss ticks (Tick)
system.l2.demandMissLatency::cpu.data      5788094500                       # number of demand (read+write) miss ticks (Tick)
system.l2.demandMissLatency::total         5800283000                       # number of demand (read+write) miss ticks (Tick)
system.l2.overallMissLatency::cpu.inst       12188500                       # number of overall miss ticks (Tick)
system.l2.overallMissLatency::cpu.data     5788094500                       # number of overall miss ticks (Tick)
system.l2.overallMissLatency::total        5800283000                       # number of overall miss ticks (Tick)
system.l2.demandAccesses::cpu.inst                159                       # number of demand (read+write) accesses (Count)
system.l2.demandAccesses::cpu.data             422524                       # number of demand (read+write) accesses (Count)
system.l2.demandAccesses::total                422683                       # number of demand (read+write) accesses (Count)
system.l2.overallAccesses::cpu.inst               159                       # number of overall (read+write) accesses (Count)
system.l2.overallAccesses::cpu.data            422524                       # number of overall (read+write) accesses (Count)
system.l2.overallAccesses::total               422683                       # number of overall (read+write) accesses (Count)
system.l2.demandMissRate::cpu.inst           0.993711                       # miss rate for demand accesses (Ratio)
system.l2.demandMissRate::cpu.data           0.186460                       # miss rate for demand accesses (Ratio)
system.l2.demandMissRate::total              0.186764                       # miss rate for demand accesses (Ratio)
system.l2.overallMissRate::cpu.inst          0.993711                       # miss rate for overall accesses (Ratio)
system.l2.overallMissRate::cpu.data          0.186460                       # miss rate for overall accesses (Ratio)
system.l2.overallMissRate::total             0.186764                       # miss rate for overall accesses (Ratio)
system.l2.demandAvgMissLatency::cpu.inst 77142.405063                       # average overall miss latency in ticks ((Tick/Count))
system.l2.demandAvgMissLatency::cpu.data 73467.893227                       # average overall miss latency in ticks ((Tick/Count))
system.l2.demandAvgMissLatency::total    73475.247650                       # average overall miss latency in ticks ((Tick/Count))
system.l2.overallAvgMissLatency::cpu.inst 77142.405063                       # average overall miss latency ((Tick/Count))
system.l2.overallAvgMissLatency::cpu.data 73467.893227                       # average overall miss latency ((Tick/Count))
system.l2.overallAvgMissLatency::total   73475.247650                       # average overall miss latency ((Tick/Count))
system.l2.blockedCycles::no_mshrs                   0                       # number of cycles access was blocked (Cycle)
system.l2.blockedCycles::no_targets                 0                       # number of cycles access was blocked (Cycle)
system.l2.blockedCauses::no_mshrs                   0                       # number of times access was blocked (Count)
system.l2.blockedCauses::no_targets                 0                       # number of times access was blocked (Count)
system.l2.avgBlocked::no_mshrs                    nan                       # average number of cycles each access was blocked ((Cycle/Count))
system.l2.avgBlocked::no_targets                  nan                       # average number of cycles each access was blocked ((Cycle/Count))
system.l2.writebacks::writebacks                71460                       # number of writebacks (Count)
system.l2.writebacks::total                     71460                       # number of writebacks (Count)
system.l2.demandMshrMisses::cpu.inst              158                       # number of demand (read+write) MSHR misses (Count)
system.l2.demandMshrMisses::cpu.data            78784                       # number of demand (read+write) MSHR misses (Count)
system.l2.demandMshrMisses::total               78942                       # number of demand (read+write) MSHR misses (Count)
system.l2.overallMshrMisses::cpu.inst             158                       # number of overall MSHR misses (Count)
system.l2.overallMshrMisses::cpu.data           78784                       # number of overall MSHR misses (Count)
system.l2.overallMshrMisses::total              78942                       # number of overall MSHR misses (Count)
system.l2.demandMshrMissLatency::cpu.inst     10608500                       # number of demand (read+write) MSHR miss ticks (Tick)
system.l2.demandMshrMissLatency::cpu.data   5000254500                       # number of demand (read+write) MSHR miss ticks (Tick)
system.l2.demandMshrMissLatency::total     5010863000                       # number of demand (read+write) MSHR miss ticks (Tick)
system.l2.overallMshrMissLatency::cpu.inst     10608500                       # number of overall MSHR miss ticks (Tick)
system.l2.overallMshrMissLatency::cpu.data   5000254500                       # number of overall MSHR miss ticks (Tick)
system.l2.overallMshrMissLatency::total    5010863000                       # number of overall MSHR miss ticks (Tick)
system.l2.demandMshrMissRate::cpu.inst       0.993711                       # mshr miss ratio for demand accesses (Ratio)
system.l2.demandMshrMissRate::cpu.data       0.186460                       # mshr miss ratio for demand accesses (Ratio)
system.l2.demandMshrMissRate::total          0.186764                       # mshr miss ratio for demand accesses (Ratio)
system.l2.overallMshrMissRate::cpu.inst      0.993711                       # mshr miss ratio for overall accesses (Ratio)
system.l2.overallMshrMissRate::cpu.data      0.186460                       # mshr miss ratio for overall accesses (Ratio)
system.l2.overallMshrMissRate::total         0.186764                       # mshr miss ratio for overall accesses (Ratio)
system.l2.demandAvgMshrMissLatency::cpu.inst 67142.405063                       # average overall mshr miss latency ((Tick/Count))
system.l2.demandAvgMshrMissLatency::cpu.data 63467.893227                       # average overall mshr miss latency ((Tick/Count))
system.l2.demandAvgMshrMissLatency::total 63475.247650                       # average overall mshr miss latency ((Tick/Count))
system.l2.overallAvgMshrMissLatency::cpu.inst 67142.405063                       # average overall mshr miss latency ((Tick/Count))
system.l2.overallAvgMshrMissLatency::cpu.data 63467.893227                       # average overall mshr miss latency ((Tick/Count))
system.l2.overallAvgMshrMissLatency::total 63475.247650                       # average overall mshr miss latency ((Tick/Count))
system.l2.replacements                          77045                       # number of replacements (Count)
system.l2.ReadCleanReq.hits::cpu.inst               1                       # number of ReadCleanReq hits (Count)
system.l2.ReadCleanReq.hits::total                  1                       # number of ReadCleanReq hits (Count)
system.l2.ReadCleanReq.misses::cpu.inst           158                       # number of ReadCleanReq misses (Count)
system.l2.ReadCleanReq.misses::total              158                       # number of ReadCleanReq misses (Count)
system.l2.ReadCleanReq.missLatency::cpu.inst     12188500                       # number of ReadCleanReq miss ticks (Tick)
system.l2.ReadCleanReq.missLatency::total     12188500                       # number of ReadCleanReq miss ticks (Tick)
system.l2.ReadCleanReq.accesses::cpu.inst          159                       # number of ReadCleanReq accesses(hits+misses) (Count)
system.l2.ReadCleanReq.accesses::total            159                       # number of ReadCleanReq accesses(hits+misses) (Count)
system.l2.ReadCleanReq.missRate::cpu.inst     0.993711                       # miss rate for ReadCleanReq accesses (Ratio)
system.l2.ReadCleanReq.missRate::total       0.993711                       # miss rate for ReadCleanReq accesses (Ratio)
system.l2.ReadCleanReq.avgMissLatency::cpu.inst 77142.405063                       # average ReadCleanReq miss latency ((Tick/Count))
system.l2.ReadCleanReq.avgMissLatency::total 77142.405063                       # average ReadCleanReq miss latency ((Tick/Count))
system.l2.ReadCleanReq.mshrMisses::cpu.inst          158                       # number of ReadCleanReq MSHR misses (Count)
system.l2.ReadCleanReq.mshrMisses::total          158                       # number of ReadCleanReq MSHR misses (Count)
system.l2.ReadCleanReq.mshrMissLatency::cpu.inst     10608500                       # number of ReadCleanReq MSHR miss ticks (Tick)
system.l2.ReadCleanReq.mshrMissLatency::total     10608500                       # number of ReadCleanReq MSHR miss ticks (Tick)
system.l2.ReadCleanReq.mshrMissRate::cpu.inst     0.993711                       # mshr miss rate for ReadCleanReq accesses (Ratio)
system.l2.ReadCleanReq.mshrMissRate::total     0.993711                       # mshr miss rate for ReadCleanReq accesses (Ratio)
system.l2.ReadCleanReq.avgMshrMissLatency::cpu.inst 67142.405063                       # average ReadCleanReq mshr miss latency ((Tick/Count))
system.l2.ReadCleanReq.avgMshrMissLatency::total 67142.405063                       # average ReadCleanReq mshr miss latency ((Tick/Count))
system.l2.ReadExReq.hits::cpu.data             340743                       # number of ReadExReq hits (Count)
system.l2.ReadExReq.hits::total                340743                       # number of ReadExReq hits (Count)
system.l2.ReadExReq.misses::cpu.data            72827                       # number of ReadExReq misses (Count)
system.l2.ReadExReq.misses::total               72827                       # number of ReadExReq misses (Count)
system.l2.ReadExReq.missLatency::cpu.data   5316885000                       # number of ReadExReq miss ticks (Tick)
system.l2.ReadExReq.missLatency::total     5316885000                       # number of ReadExReq miss ticks (Tick)
system.l2.ReadExReq.accesses::cpu.data         413570                       # number of ReadExReq accesses(hits+misses) (Count)
system.l2.ReadExReq.accesses::total            413570                       # number of ReadExReq accesses(hits+misses) (Count)
system.l2.ReadExReq.missRate::cpu.data       0.176094                       # miss rate for ReadExReq accesses (Ratio)
system.l2.ReadExReq.missRate::total          0.176094                       # miss rate for ReadExReq accesses (Ratio)
system.l2.ReadExReq.avgMissLatency::cpu.data 73007.057822                       # average ReadExReq miss latency ((Tick/Count))
system.l2.ReadExReq.avgMissLatency::total 73007.057822                       # average ReadExReq miss latency ((Tick/Count))
system.l2.ReadExReq.mshrMisses::cpu.data        72827                       # number of ReadExReq MSHR misses (Count)
system.l2.ReadExReq.mshrMisses::total           72827                       # number of ReadExReq MSHR misses (Count)
system.l2.ReadExReq.mshrMissLatency::cpu.data   4588615000                       # number of ReadExReq MSHR miss ticks (Tick)
system.l2.ReadExReq.mshrMissLatency::total   4588615000                       # number of ReadExReq MSHR miss ticks (Tick)
system.l2.ReadExReq.mshrMissRate::cpu.data     0.176094                       # mshr miss rate for ReadExReq accesses (Ratio)
system.l2.ReadExReq.mshrMissRate::total      0.176094                       # mshr miss rate for ReadExReq accesses (Ratio)
system.l2.ReadExReq.avgMshrMissLatency::cpu.data 63007.057822                       # average ReadExReq mshr miss latency ((Tick/Count))
system.l2.ReadExReq.avgMshrMissLatency::total 63007.057822                       # average ReadExReq mshr miss latency ((Tick/Count))
system.l2.ReadSharedReq.hits::cpu.data           2997                       # number of ReadSharedReq hits (Count)
system.l2.ReadSharedReq.hits::total              2997                       # number of ReadSharedReq hits (Count)
system.l2.ReadSharedReq.misses::cpu.data         5957                       # number of ReadSharedReq misses (Count)
system.l2.ReadSharedReq.misses::total            5957                       # number of ReadSharedReq misses (Count)
system.l2.ReadSharedReq.missLatency::cpu.data    471209500                       # number of ReadSharedReq miss ticks (Tick)
system.l2.ReadSharedReq.missLatency::total    471209500                       # number of ReadSharedReq miss ticks (Tick)
system.l2.ReadSharedReq.accesses::cpu.data         8954                       # number of ReadSharedReq accesses(hits+misses) (Count)
system.l2.ReadSharedReq.accesses::total          8954                       # number of ReadSharedReq accesses(hits+misses) (Count)
system.l2.ReadSharedReq.missRate::cpu.data     0.665289                       # miss rate for ReadSharedReq accesses (Ratio)
system.l2.ReadSharedReq.missRate::total      0.665289                       # miss rate for ReadSharedReq accesses (Ratio)
system.l2.ReadSharedReq.avgMissLatency::cpu.data 79101.812993                       # average ReadSharedReq miss latency ((Tick/Count))
system.l2.ReadSharedReq.avgMissLatency::total 79101.812993                       # average ReadSharedReq miss latency ((Tick/Count))
system.l2.ReadSharedReq.mshrMisses::cpu.data         5957                       # number of ReadSharedReq MSHR misses (Count)
system.l2.ReadSharedReq.mshrMisses::total         5957                       # number of ReadSharedReq MSHR misses (Count)
system.l2.ReadSharedReq.mshrMissLatency::cpu.data    411639500                       # number of ReadSharedReq MSHR miss ticks (Tick)
system.l2.ReadSharedReq.mshrMissLatency::total    411639500                       # number of ReadSharedReq MSHR miss ticks (Tick)
system.l2.ReadSharedReq.mshrMissRate::cpu.data     0.665289                       # mshr miss rate for ReadSharedReq accesses (Ratio)
system.l2.ReadSharedReq.mshrMissRate::total     0.665289                       # mshr miss rate for ReadSharedReq accesses (Ratio)
system.l2.ReadSharedReq.avgMshrMissLatency::cpu.data 69101.812993                       # average ReadSharedReq mshr miss latency ((Tick/Count))
system.l2.ReadSharedReq.avgMshrMissLatency::total 69101.812993                       # average ReadSharedReq mshr miss latency ((Tick/Count))
system.l2.WritebackClean.hits::writebacks          159                       # number of WritebackClean hits (Count)
system.l2.WritebackClean.hits::total              159                       # number of WritebackClean hits (Count)
system.l2.WritebackClean.accesses::writebacks          159                       # number of WritebackClean accesses(hits+misses) (Count)
system.l2.WritebackClean.accesses::total          159                       # number of WritebackClean accesses(hits+misses) (Count)
system.l2.WritebackDirty.hits::writebacks       418696                       # number of WritebackDirty hits (Count)
system.l2.WritebackDirty.hits::total           418696                       # number of WritebackDirty hits (Count)
system.l2.WritebackDirty.accesses::writebacks       418696                       # number of WritebackDirty accesses(hits+misses) (Count)
system.l2.WritebackDirty.accesses::total       418696                       # number of WritebackDirty accesses(hits+misses) (Count)
system.l2.power_state.pwrStateResidencyTicks::UNDEFINED 150602442500                       # Cumulative time (in ticks) in various power states (Tick)
system.l2.tags.tagsInUse                  4089.933646                       # Average ticks per tags in use ((Tick/Count))
system.l2.tags.totalRefs                       155493                       # Total number of references to valid blocks. (Count)
system.l2.tags.sampledRefs                      77045                       # Sample count of references to valid blocks. (Count)
system.l2.tags.avgRefs                       2.018210                       # Average number of references to valid blocks. ((Count/Count))
system.l2.tags.warmupTick                  1330060000                       # The tick when the warmup percentage was hit. (Tick)
system.l2.tags.occupancies::writebacks       1.374495                       # Average occupied blocks per tick, per requestor ((Count/Tick))
system.l2.tags.occupancies::cpu.inst         5.808030                       # Average occupied blocks per tick, per requestor ((Count/Tick))
system.l2.tags.occupancies::cpu.data      4082.751121                       # Average occupied blocks per tick, per requestor ((Count/Tick))
system.l2.tags.avgOccs::writebacks           0.000336                       # Average percentage of cache occupancy ((Ratio/Tick))
system.l2.tags.avgOccs::cpu.inst             0.001418                       # Average percentage of cache occupancy ((Ratio/Tick))
system.l2.tags.avgOccs::cpu.data             0.996765                       # Average percentage of cache occupancy ((Ratio/Tick))
system.l2.tags.avgOccs::total                0.998519                       # Average percentage of cache occupancy ((Ratio/Tick))
system.l2.tags.occupanciesTaskId::1024           4096                       # Occupied blocks per task id (Count)
system.l2.tags.ageTaskId_1024::0                   45                       # Occupied blocks per task id, per block age (Count)
system.l2.tags.ageTaskId_1024::1                   42                       # Occupied blocks per task id, per block age (Count)
system.l2.tags.ageTaskId_1024::2                  425                       # Occupied blocks per task id, per block age (Count)
system.l2.tags.ageTaskId_1024::3                  137                       # Occupied blocks per task id, per block age (Count)
system.l2.tags.ageTaskId_1024::4                 3447                       # Occupied blocks per task id, per block age (Count)
system.l2.tags.ratioOccsTaskId::1024                1                       # Ratio of occupied blocks and all blocks, per task id (Ratio)
system.l2.tags.tagAccesses                    6842024                       # Number of tag accesses (Count)
system.l2.tags.dataAccesses                   6842024                       # Number of data accesses (Count)
system.l2.tags.power_state.pwrStateResidencyTicks::UNDEFINED 150602442500                       # Cumulative time (in ticks) in various power states (Tick)
system.mem_ctrls.avgPriority_writebacks::samples     71459.00                       # Average QoS priority value for accepted requests (Count)
system.mem_ctrls.avgPriority_cpu.inst::samples       158.00                       # Average QoS priority value for accepted requests (Count)
system.mem_ctrls.avgPriority_cpu.data::samples     77786.00                       # Average QoS priority value for accepted requests (Count)
system.mem_ctrls.priorityMinLatency      0.000000016842                       # per QoS priority minimum request to response latency (Second)
system.mem_ctrls.priorityMaxLatency      0.000812203932                       # per QoS priority maximum request to response latency (Second)
system.mem_ctrls.numReadWriteTurnArounds         3984                       # Number of turnarounds from READ to WRITE (Count)
system.mem_ctrls.numWriteReadTurnArounds         3984                       # Number of turnarounds from WRITE to READ (Count)
system.mem_ctrls.numStayReadState              265599                       # Number of times bus staying in READ state (Count)
system.mem_ctrls.numStayWriteState              67572                       # Number of times bus staying in WRITE state (Count)
system.mem_ctrls.readReqs                       78942                       # Number of read requests accepted (Count)
system.mem_ctrls.writeReqs                      71459                       # Number of write requests accepted (Count)
system.mem_ctrls.readBursts                     78942                       # Number of controller read bursts, including those serviced by the write queue (Count)
system.mem_ctrls.writeBursts                    71459                       # Number of controller write bursts, including those merged in the write queue (Count)
system.mem_ctrls.servicedByWrQ                    998                       # Number of controller read bursts serviced by the write queue (Count)
system.mem_ctrls.mergedWrBursts                     0                       # Number of controller write bursts merged with an existing one (Count)
system.mem_ctrls.neitherReadNorWriteReqs            0                       # Number of requests that are neither read nor write (Count)
system.mem_ctrls.avgRdQLen                       1.00                       # Average read queue length when enqueuing ((Count/Tick))
system.mem_ctrls.avgWrQLen                      24.45                       # Average write queue length when enqueuing ((Count/Tick))
system.mem_ctrls.numRdRetry                         0                       # Number of times read queue was full causing retry (Count)
system.mem_ctrls.numWrRetry                         0                       # Number of times write queue was full causing retry (Count)
system.mem_ctrls.readPktSize::0                     0                       # Read request sizes (log2) (Count)
system.mem_ctrls.readPktSize::1                     0                       # Read request sizes (log2) (Count)
system.mem_ctrls.readPktSize::2                     0                       # Read request sizes (log2) (Count)
system.mem_ctrls.readPktSize::3                     0                       # Read request sizes (log2) (Count)
system.mem_ctrls.readPktSize::4                     0                       # Read request sizes (log2) (Count)
system.mem_ctrls.readPktSize::5                     0                       # Read request sizes (log2) (Count)
system.mem_ctrls.readPktSize::6                 78942                       # Read request sizes (log2) (Count)
system.mem_ctrls.writePktSize::0                    0                       # Write request sizes (log2) (Count)
system.mem_ctrls.writePktSize::1                    0                       # Write request sizes (log2) (Count)
system.mem_ctrls.writePktSize::2                    0                       # Write request sizes (log2) (Count)
system.mem_ctrls.writePktSize::3                    0                       # Write request sizes (log2) (Count)
system.mem_ctrls.writePktSize::4                    0                       # Write request sizes (log2) (Count)
system.mem_ctrls.writePktSize::5                    0                       # Write request sizes (log2) (Count)
system.mem_ctrls.writePktSize::6                71459                       # Write request sizes (log2) (Count)
system.mem_ctrls.rdQLenPdf::0                   77944                       # What read queue length does an incoming req see (Count)
system.mem_ctrls.rdQLenPdf::1                       0                       # What read queue length does an incoming req see (Count)
system.mem_ctrls.rdQLenPdf::2                       0                       # What read queue length does an incoming req see (Count)
system.mem_ctrls.rdQLenPdf::3                       0                       # What read queue length does an incoming req see (Count)
system.mem_ctrls.rdQLenPdf::4                       0                       # What read queue length does an incoming req see (Count)
system.mem_ctrls.rdQLenPdf::5                       0                       # What read queue length does an incoming req see (Count)
system.mem_ctrls.rdQLenPdf::6                       0                       # What read queue length does an incoming req see (Count)
system.mem_ctrls.rdQLenPdf::7                       0                       # What read queue length does an incoming req see (Count)
system.mem_ctrls.rdQLenPdf::8                       0                       # What read queue length does an incoming req see (Count)
system.mem_ctrls.rdQLenPdf::9                       0                       # What read queue length does an incoming req see (Count)
system.mem_ctrls.rdQLenPdf::10                      0                       # What read queue length does an incoming req see (Count)
system.mem_ctrls.rdQLenPdf::11                      0                       # What read queue length does an incoming req see (Count)
system.mem_ctrls.rdQLenPdf::12                      0                       # What read queue length does an incoming req see (Count)
system.mem_ctrls.rdQLenPdf::13                      0                       # What read queue length does an incoming req see (Count)
system.mem_ctrls.rdQLenPdf::14                      0                       # What read queue length does an incoming req see (Count)
system.mem_ctrls.rdQLenPdf::15                      0                       # What read queue length does an incoming req see (Count)
system.mem_ctrls.rdQLenPdf::16                      0                       # What read queue length does an incoming req see (Count)
system.mem_ctrls.rdQLenPdf::17                      0                       # What read queue length does an incoming req see (Count)
system.mem_ctrls.rdQLenPdf::18                      0                       # What read queue length does an incoming req see (Count)
system.mem_ctrls.rdQLenPdf::19                      0                       # What read queue length does an incoming req see (Count)
system.mem_ctrls.rdQLenPdf::20                      0                       # What read queue length does an incoming req see (Count)
system.mem_ctrls.rdQLenPdf::21                      0                       # What read queue length does an incoming req see (Count)
system.mem_ctrls.rdQLenPdf::22                      0                       # What read queue length does an incoming req see (Count)
system.mem_ctrls.rdQLenPdf::23                      0                       # What read queue length does an incoming req see (Count)
system.mem_ctrls.rdQLenPdf::24                      0                       # What read queue length does an incoming req see (Count)
system.mem_ctrls.rdQLenPdf::25                      0                       # What read queue length does an incoming req see (Count)
system.mem_ctrls.rdQLenPdf::26                      0                       # What read queue length does an incoming req see (Count)
system.mem_ctrls.rdQLenPdf::27                      0                       # What read queue length does an incoming req see (Count)
system.mem_ctrls.rdQLenPdf::28                      0                       # What read queue length does an incoming req see (Count)
system.mem_ctrls.rdQLenPdf::29                      0                       # What read queue length does an incoming req see (Count)
system.mem_ctrls.rdQLenPdf::30                      0                       # What read queue length does an incoming req see (Count)
system.mem_ctrls.rdQLenPdf::31                      0                       # What read queue length does an incoming req see (Count)
system.mem_ctrls.wrQLenPdf::0                       1                       # What write queue length does an incoming req see (Count)
system.mem_ctrls.wrQLenPdf::1                       1                       # What write queue length does an incoming req see (Count)
system.mem_ctrls.wrQLenPdf::2                       1                       # What write queue length does an incoming req see (Count)
system.mem_ctrls.wrQLenPdf::3                       1                       # What write queue length does an incoming req see (Count)
system.mem_ctrls.wrQLenPdf::4                       1                       # What write queue length does an incoming req see (Count)
system.mem_ctrls.wrQLenPdf::5                       1                       # What write queue length does an incoming req see (Count)
system.mem_ctrls.wrQLenPdf::6                       1                       # What write queue length does an incoming req see (Count)
system.mem_ctrls.wrQLenPdf::7                       1                       # What write queue length does an incoming req see (Count)
system.mem_ctrls.wrQLenPdf::8                       1                       # What write queue length does an incoming req see (Count)
system.mem_ctrls.wrQLenPdf::9                       1                       # What write queue length does an incoming req see (Count)
system.mem_ctrls.wrQLenPdf::10                      1                       # What write queue length does an incoming req see (Count)
system.mem_ctrls.wrQLenPdf::11                      1                       # What write queue length does an incoming req see (Count)
system.mem_ctrls.wrQLenPdf::12                      1                       # What write queue length does an incoming req see (Count)
system.mem_ctrls.wrQLenPdf::13                      1                       # What write queue length does an incoming req see (Count)
system.mem_ctrls.wrQLenPdf::14                      1                       # What write queue length does an incoming req see (Count)
system.mem_ctrls.wrQLenPdf::15                   3828                       # What write queue length does an incoming req see (Count)
system.mem_ctrls.wrQLenPdf::16                   3853                       # What write queue length does an incoming req see (Count)
system.mem_ctrls.wrQLenPdf::17                   3978                       # What write queue length does an incoming req see (Count)
system.mem_ctrls.wrQLenPdf::18                   3985                       # What write queue length does an incoming req see (Count)
system.mem_ctrls.wrQLenPdf::19                   3985                       # What write queue length does an incoming req see (Count)
system.mem_ctrls.wrQLenPdf::20                   3994                       # What write queue length does an incoming req see (Count)
system.mem_ctrls.wrQLenPdf::21                   3985                       # What write queue length does an incoming req see (Count)
system.mem_ctrls.wrQLenPdf::22                   3985                       # What write queue length does an incoming req see (Count)
system.mem_ctrls.wrQLenPdf::23                   3988                       # What write queue length does an incoming req see (Count)
system.mem_ctrls.wrQLenPdf::24                   3985                       # What write queue length does an incoming req see (Count)
system.mem_ctrls.wrQLenPdf::25                   3985                       # What write queue length does an incoming req see (Count)
system.mem_ctrls.wrQLenPdf::26                   3985                       # What write queue length does an incoming req see (Count)
system.mem_ctrls.wrQLenPdf::27                   3985                       # What write queue length does an incoming req see (Count)
system.mem_ctrls.wrQLenPdf::28                   3985                       # What write queue length does an incoming req see (Count)
system.mem_ctrls.wrQLenPdf::29                   3985                       # What write queue length does an incoming req see (Count)
system.mem_ctrls.wrQLenPdf::30                   3985                       # What write queue length does an incoming req see (Count)
system.mem_ctrls.wrQLenPdf::31                   3984                       # What write queue length does an incoming req see (Count)
system.mem_ctrls.wrQLenPdf::32                   3984                       # What write queue length does an incoming req see (Count)
system.mem_ctrls.wrQLenPdf::33                      0                       # What write queue length does an incoming req see (Count)
system.mem_ctrls.wrQLenPdf::34                      0                       # What write queue length does an incoming req see (Count)
system.mem_ctrls.wrQLenPdf::35                      0                       # What write queue length does an incoming req see (Count)
system.mem_ctrls.wrQLenPdf::36                      0                       # What write queue length does an incoming req see (Count)
system.mem_ctrls.wrQLenPdf::37                      0                       # What write queue length does an incoming req see (Count)
system.mem_ctrls.wrQLenPdf::38                      0                       # What write queue length does an incoming req see (Count)
system.mem_ctrls.wrQLenPdf::39                      0                       # What write queue length does an incoming req see (Count)
system.mem_ctrls.wrQLenPdf::40                      0                       # What write queue length does an incoming req see (Count)
system.mem_ctrls.wrQLenPdf::41                      0                       # What write queue length does an incoming req see (Count)
system.mem_ctrls.wrQLenPdf::42                      0                       # What write queue length does an incoming req see (Count)
system.mem_ctrls.wrQLenPdf::43                      0                       # What write queue length does an incoming req see (Count)
system.mem_ctrls.wrQLenPdf::44                      0                       # What write queue length does an incoming req see (Count)
system.mem_ctrls.wrQLenPdf::45                      0                       # What write queue length does an incoming req see (Count)
system.mem_ctrls.wrQLenPdf::46                      0                       # What write queue length does an incoming req see (Count)
system.mem_ctrls.wrQLenPdf::47                      0                       # What write queue length does an incoming req see (Count)
system.mem_ctrls.wrQLenPdf::48                      0                       # What write queue length does an incoming req see (Count)
system.mem_ctrls.wrQLenPdf::49                      0                       # What write queue length does an incoming req see (Count)
system.mem_ctrls.wrQLenPdf::50                      0                       # What write queue length does an incoming req see (Count)
system.mem_ctrls.wrQLenPdf::51                      0                       # What write queue length does an incoming req see (Count)
[...]
system.mem_ctrls.dram.perBankWrBursts::12        12452                       # Per bank write bursts (Count)
system.mem_ctrls.dram.perBankWrBursts::13         5099                       # Per bank write bursts (Count)
system.mem_ctrls.dram.perBankWrBursts::14          544                       # Per bank write bursts (Count)
system.mem_ctrls.dram.perBankWrBursts::15          562                       # Per bank write bursts (Count)
system.mem_ctrls.dram.totQLat               499744290                       # Total ticks spent queuing (Tick)
system.mem_ctrls.dram.totBusLat             292813584                       # Total ticks spent in databus transfers (Tick)
system.mem_ctrls.dram.totMemAccLat         1814127654                       # Total ticks spent from burst creation until serviced by the DRAM (Tick)
system.mem_ctrls.dram.avgQLat                 6403.53                       # Average queueing delay per DRAM burst ((Tick/Count))
system.mem_ctrls.dram.avgBusLat               3752.00                       # Average bus latency per DRAM burst ((Tick/Count))
system.mem_ctrls.dram.avgMemAccLat           23245.53                       # Average memory access latency per DRAM burst ((Tick/Count))
system.mem_ctrls.dram.readRowHits               62334                       # Number of row buffer hits during reads (Count)
system.mem_ctrls.dram.writeRowHits              61762                       # Number of row buffer hits during writes (Count)
system.mem_ctrls.dram.readRowHitRate            79.87                       # Row buffer hit rate for reads (Ratio)
system.mem_ctrls.dram.writeRowHitRate           86.26                       # Row buffer hit rate for writes (Ratio)
system.mem_ctrls.dram.bytesPerActivate::samples        25538                       # Bytes accessed per row activation (Byte)
system.mem_ctrls.dram.bytesPerActivate::mean   374.907980                       # Bytes accessed per row activation (Byte)
system.mem_ctrls.dram.bytesPerActivate::gmean   236.767646                       # Bytes accessed per row activation (Byte)
system.mem_ctrls.dram.bytesPerActivate::stdev   336.780786                       # Bytes accessed per row activation (Byte)
system.mem_ctrls.dram.bytesPerActivate::0-127         5687     22.27%     22.27% # Bytes accessed per row activation (Byte)
system.mem_ctrls.dram.bytesPerActivate::128-255         7718     30.22%     52.49% # Bytes accessed per row activation (Byte)
system.mem_ctrls.dram.bytesPerActivate::256-383         2348      9.19%     61.68% # Bytes accessed per row activation (Byte)
system.mem_ctrls.dram.bytesPerActivate::384-511         1399      5.48%     67.16% # Bytes accessed per row activation (Byte)
system.mem_ctrls.dram.bytesPerActivate::512-639         1597      6.25%     73.42% # Bytes accessed per row activation (Byte)
system.mem_ctrls.dram.bytesPerActivate::640-767         1241      4.86%     78.28% # Bytes accessed per row activation (Byte)
system.mem_ctrls.dram.bytesPerActivate::768-895         1782      6.98%     85.25% # Bytes accessed per row activation (Byte)
system.mem_ctrls.dram.bytesPerActivate::896-1023         1277      5.00%     90.25% # Bytes accessed per row activation (Byte)
system.mem_ctrls.dram.bytesPerActivate::1024-1151         2489      9.75%    100.00% # Bytes accessed per row activation (Byte)
system.mem_ctrls.dram.bytesPerActivate::total        25538                       # Bytes accessed per row activation (Byte)
system.mem_ctrls.dram.bytesRead               4994688                       # Total bytes read (Byte)
system.mem_ctrls.dram.bytesWritten            4582208                       # Total bytes written (Byte)
system.mem_ctrls.dram.avgRdBW               33.237982                       # Average DRAM read bandwidth in MiBytes/s ((Byte/Second))
system.mem_ctrls.dram.avgWrBW               30.493065                       # Average DRAM write bandwidth in MiBytes/s ((Byte/Second))
system.mem_ctrls.dram.peakBW                 17057.00                       # Theoretical peak bandwidth in MiByte/s ((Byte/Second))
system.mem_ctrls.dram.busUtil                    0.37                       # Data bus utilization in percentage (Ratio)
system.mem_ctrls.dram.busUtilRead                0.19                       # Data bus utilization in percentage for reads (Ratio)
system.mem_ctrls.dram.busUtilWrite               0.18                       # Data bus utilization in percentage for writes (Ratio)
system.mem_ctrls.dram.pageHitRate               82.93                       # Row buffer hit rate, read and write combined (Ratio)
system.mem_ctrls.dram.power_state.pwrStateResidencyTicks::UNDEFINED 150611809500                       # Cumulative time (in ticks) in various power states (Tick)
system.mem_ctrls.dram.rank0.actEnergy    140545117.439985                       # Energy for activate commands per rank (pJ) (Joule)
system.mem_ctrls.dram.rank0.preEnergy    69335226.575999                       # Energy for precharge commands per rank (pJ) (Joule)
system.mem_ctrls.dram.rank0.readEnergy   257500450.367987                       # Energy for read commands per rank (pJ) (Joule)
system.mem_ctrls.dram.rank0.writeEnergy  183096579.456005                       # Energy for write commands per rank (pJ) (Joule)
system.mem_ctrls.dram.rank0.refreshEnergy 12439656917.180927                       # Energy for refresh commands per rank (pJ) (Joule)
system.mem_ctrls.dram.rank0.actBackEnergy 21828992583.545788                       # Energy for active background per rank (pJ) (Joule)
system.mem_ctrls.dram.rank0.preBackEnergy 48366655036.556709                       # Energy for precharge background per rank (pJ) (Joule)
system.mem_ctrls.dram.rank0.actPowerDownEnergy            0                       # Energy for active power-down per rank (pJ) (Joule)
system.mem_ctrls.dram.rank0.prePowerDownEnergy            0                       # Energy for precharge power-down per rank (pJ) (Joule)
system.mem_ctrls.dram.rank0.selfRefreshEnergy            0                       # Energy for self refresh per rank (pJ) (Joule)
system.mem_ctrls.dram.rank0.totalEnergy  83285781911.145035                       # Total energy per rank (pJ) (Joule)
system.mem_ctrls.dram.rank0.averagePower   554.239090                       # Core power per rank (mW) (Watt)
system.mem_ctrls.dram.rank0.totalIdleTime            0                       # Total Idle time Per DRAM Rank (Tick)
system.mem_ctrls.dram.rank0.pwrStateTime::IDLE 108598778316                       # Time in different power states (Tick)
system.mem_ctrls.dram.rank0.pwrStateTime::REF   5017480000                       # Time in different power states (Tick)
system.mem_ctrls.dram.rank0.pwrStateTime::SREF            0                       # Time in different power states (Tick)
system.mem_ctrls.dram.rank0.pwrStateTime::PRE_PDN            0                       # Time in different power states (Tick)
system.mem_ctrls.dram.rank0.pwrStateTime::ACT  36660437594                       # Time in different power states (Tick)
system.mem_ctrls.dram.rank0.pwrStateTime::ACT_PDN            0                       # Time in different power states (Tick)
system.mem_ctrls.dram.rank1.actEnergy    128692549.439986                       # Energy for activate commands per rank (pJ) (Joule)
system.mem_ctrls.dram.rank1.preEnergy    63484920.575999                       # Energy for precharge commands per rank (pJ) (Joule)
system.mem_ctrls.dram.rank1.readEnergy   259333782.623989                       # Energy for read commands per rank (pJ) (Joule)
system.mem_ctrls.dram.rank1.writeEnergy  181168336.608005                       # Energy for write commands per rank (pJ) (Joule)
system.mem_ctrls.dram.rank1.refreshEnergy 12439656917.180927                       # Energy for refresh commands per rank (pJ) (Joule)
system.mem_ctrls.dram.rank1.actBackEnergy 22024454959.577976                       # Energy for active background per rank (pJ) (Joule)
system.mem_ctrls.dram.rank1.preBackEnergy 48202197740.252968                       # Energy for precharge background per rank (pJ) (Joule)
system.mem_ctrls.dram.rank1.actPowerDownEnergy            0                       # Energy for active power-down per rank (pJ) (Joule)
system.mem_ctrls.dram.rank1.prePowerDownEnergy            0                       # Energy for precharge power-down per rank (pJ) (Joule)
system.mem_ctrls.dram.rank1.selfRefreshEnergy            0                       # Energy for self refresh per rank (pJ) (Joule)
system.mem_ctrls.dram.rank1.totalEnergy  83298989206.281982                       # Total energy per rank (pJ) (Joule)
system.mem_ctrls.dram.rank1.averagePower   554.326981                       # Core power per rank (mW) (Watt)
system.mem_ctrls.dram.rank1.totalIdleTime            0                       # Total Idle time Per DRAM Rank (Tick)
system.mem_ctrls.dram.rank1.pwrStateTime::IDLE 108229382738                       # Time in different power states (Tick)
system.mem_ctrls.dram.rank1.pwrStateTime::REF   5017480000                       # Time in different power states (Tick)
system.mem_ctrls.dram.rank1.pwrStateTime::SREF            0                       # Time in different power states (Tick)
system.mem_ctrls.dram.rank1.pwrStateTime::PRE_PDN            0                       # Time in different power states (Tick)
system.mem_ctrls.dram.rank1.pwrStateTime::ACT  37029627762                       # Time in different power states (Tick)
system.mem_ctrls.dram.rank1.pwrStateTime::ACT_PDN            0                       # Time in different power states (Tick)
system.mem_ctrls.power_state.pwrStateResidencyTicks::UNDEFINED 150611809500                       # Cumulative time (in ticks) in various power states (Tick)
system.membus.transDist::ReadResp                6209                       # Transaction distribution (Count)
system.membus.transDist::WritebackDirty         71615                       # Transaction distribution (Count)
system.membus.transDist::CleanEvict              5175                       # Transaction distribution (Count)
system.membus.transDist::ReadExReq              72831                       # Transaction distribution (Count)
system.membus.transDist::ReadExResp             72831                       # Transaction distribution (Count)
system.membus.transDist::ReadSharedReq           6209                       # Transaction distribution (Count)
system.membus.pktCount_system.l2.mem_side_port::system.mem_ctrls.port       234870                       # Packet count per connected requestor and responder (Count)
system.membus.pktCount_system.l2.mem_side_port::total       234870                       # Packet count per connected requestor and responder (Count)
system.membus.pktCount::total                  234870                       # Packet count per connected requestor and responder (Count)
system.membus.pktSize_system.l2.mem_side_port::system.mem_ctrls.port      9641920                       # Cumulative packet size per connected requestor and responder (Byte)
system.membus.pktSize_system.l2.mem_side_port::total      9641920                       # Cumulative packet size per connected requestor and responder (Byte)
system.membus.pktSize::total                  9641920                       # Cumulative packet size per connected requestor and responder (Byte)
system.membus.snoops                                0                       # Total snoops (Count)
system.membus.snoopTraffic                          0                       # Total snoop traffic (Byte)
system.membus.snoopFanout::samples              79040                       # Request fanout histogram (Count)
system.membus.snoopFanout::mean                     0                       # Request fanout histogram (Count)
system.membus.snoopFanout::stdev                    0                       # Request fanout histogram (Count)
system.membus.snoopFanout::underflows               0      0.00%      0.00% # Request fanout histogram (Count)
system.membus.snoopFanout::0                    79040    100.00%    100.00% # Request fanout histogram (Count)
system.membus.snoopFanout::1                        0      0.00%    100.00% # Request fanout histogram (Count)
system.membus.snoopFanout::overflows                0      0.00%    100.00% # Request fanout histogram (Count)
system.membus.snoopFanout::min_value                0                       # Request fanout histogram (Count)
system.membus.snoopFanout::max_value                0                       # Request fanout histogram (Count)
system.membus.snoopFanout::total                79040                       # Request fanout histogram (Count)
system.membus.power_state.pwrStateResidencyTicks::UNDEFINED 150611809500                       # Cumulative time (in ticks) in various power states (Tick)
system.membus.reqLayer2.occupancy           442299500                       # Layer occupancy (ticks) (Tick)
system.membus.reqLayer2.utilization               0.0                       # Layer utilization (Ratio)
system.membus.respLayer1.occupancy          407467346                       # Layer occupancy (ticks) (Tick)
system.membus.respLayer1.utilization              0.0                       # Layer utilization (Ratio)
system.membus.snoop_filter.totRequests         155830                       # Total number of requests made to the snoop filter. (Count)
system.membus.snoop_filter.hitSingleRequests        76790                       # Number of requests hitting in the snoop filter with a single holder of the requested data. (Count)
system.membus.snoop_filter.hitMultiRequests            0                       # Number of requests hitting in the snoop filter with multiple (>1) holders of the requested data. (Count)
system.membus.snoop_filter.totSnoops                0                       # Total number of snoops made to the snoop filter. (Count)
system.membus.snoop_filter.hitSingleSnoops            0                       # Number of snoops hitting in the snoop filter with a single holder of the requested data. (Count)
system.membus.snoop_filter.hitMultiSnoops            0                       # Number of snoops hitting in the snoop filter with multiple (>1) holders of the requested data. (Count)
system.tol2bus.transDist::ReadResp               9208                       # Transaction distribution (Count)
system.tol2bus.transDist::WritebackDirty       490353                       # Transaction distribution (Count)
system.tol2bus.transDist::WritebackClean          217                       # Transaction distribution (Count)
system.tol2bus.transDist::CleanEvict             9413                       # Transaction distribution (Count)
system.tol2bus.transDist::ReadExReq            413574                       # Transaction distribution (Count)
system.tol2bus.transDist::ReadExResp           413574                       # Transaction distribution (Count)
system.tol2bus.transDist::ReadCleanReq            217                       # Transaction distribution (Count)
system.tol2bus.transDist::ReadSharedReq          8991                       # Transaction distribution (Count)
system.tol2bus.pktCount_system.cpu.icache.mem_side_port::system.l2.cpu_side_port          651                       # Packet count per connected requestor and responder (Count)
system.tol2bus.pktCount_system.cpu.dcache.mem_side_port::system.l2.cpu_side_port      1267695                       # Packet count per connected requestor and responder (Count)
system.tol2bus.pktCount::total                1268346                       # Packet count per connected requestor and responder (Count)
system.tol2bus.pktSize_system.cpu.icache.mem_side_port::system.l2.cpu_side_port        27776                       # Cumulative packet size per connected requestor and responder (Byte)
system.tol2bus.pktSize_system.cpu.dcache.mem_side_port::system.l2.cpu_side_port     53843328                       # Cumulative packet size per connected requestor and responder (Byte)
system.tol2bus.pktSize::total                53871104                       # Cumulative packet size per connected requestor and responder (Byte)
system.tol2bus.snoops                           77201                       # Total snoops (Count)
system.tol2bus.snoopTraffic                   4583424                       # Total snoop traffic (Byte)
system.tol2bus.snoopFanout::samples            499983                       # Request fanout histogram (Count)
system.tol2bus.snoopFanout::mean             0.000822                       # Request fanout histogram (Count)
system.tol2bus.snoopFanout::stdev            0.028659                       # Request fanout histogram (Count)
system.tol2bus.snoopFanout::underflows              0      0.00%      0.00% # Request fanout histogram (Count)
system.tol2bus.snoopFanout::0                  499572     99.92%     99.92% # Request fanout histogram (Count)
system.tol2bus.snoopFanout::1                     411      0.08%    100.00% # Request fanout histogram (Count)
system.tol2bus.snoopFanout::2                       0      0.00%    100.00% # Request fanout histogram (Count)
system.tol2bus.snoopFanout::3                       0      0.00%    100.00% # Request fanout histogram (Count)
system.tol2bus.snoopFanout::4                       0      0.00%    100.00% # Request fanout histogram (Count)
system.tol2bus.snoopFanout::overflows               0      0.00%    100.00% # Request fanout histogram (Count)
system.tol2bus.snoopFanout::min_value               0                       # Request fanout histogram (Count)
system.tol2bus.snoopFanout::max_value               1                       # Request fanout histogram (Count)
system.tol2bus.snoopFanout::total              499983                       # Request fanout histogram (Count)
system.tol2bus.power_state.pwrStateResidencyTicks::UNDEFINED 150611809500                       # Cumulative time (in ticks) in various power states (Tick)
system.tol2bus.reqLayer0.occupancy          841736000                       # Layer occupancy (ticks) (Tick)
system.tol2bus.reqLayer0.utilization              0.0                       # Layer utilization (Ratio)
system.tol2bus.respLayer0.occupancy            325500                       # Layer occupancy (ticks) (Tick)
system.tol2bus.respLayer0.utilization             0.0                       # Layer utilization (Ratio)
system.tol2bus.respLayer1.occupancy         633847500                       # Layer occupancy (ticks) (Tick)
system.tol2bus.respLayer1.utilization             0.0                       # Layer utilization (Ratio)
system.tol2bus.snoop_filter.totRequests        845564                       # Total number of requests made to the snoop filter. (Count)
system.tol2bus.snoop_filter.hitSingleRequests       422783                       # Number of requests hitting in the snoop filter with a single holder of the requested data. (Count)
system.tol2bus.snoop_filter.hitMultiRequests            0                       # Number of requests hitting in the snoop filter with multiple (>1) holders of the requested data. (Count)
system.tol2bus.snoop_filter.totSnoops             410                       # Total number of snoops made to the snoop filter. (Count)
system.tol2bus.snoop_filter.hitSingleSnoops          410                       # Number of snoops hitting in the snoop filter with a single holder of the requested data. (Count)
system.tol2bus.snoop_filter.hitMultiSnoops            0                       # Number of snoops hitting in the snoop filter with multiple (>1) holders of the requested data. (Count)
system.voltage_domain.voltage                       1                       # Voltage in Volts (Volt)
system.workload.inst.arm                            0                       # number of arm instructions executed (Count)
system.workload.inst.quiesce                        0                       # number of quiesce instructions executed (Count)

---------- End Simulation Statistics   ----------
